<routes xmlns:xsi="http://www.w3.org/2001/XMLSchema-instance" xsi:noNamespaceSchemaLocation="http://sumo.dlr.de/xsd/routes_file.xsd">
    <!--<vehicle id="0" type="legacy" depart="0">
        <route edges="01 12" />
        <stop lane="01_0" endPos="740" duration="5" />
        </vehicle>00>-->
    <vTypeDistribution id="typedist1" vTypes="legacy cav"/>
    <flow id="flow0" begin="0" end= "360" probability="0.5" type="cav" from="01" to="12" departSpeed="max" departLane="random"/>
    <flow id="flow1" begin="0" end= "360" probability="0.5" type="legacy" from="01" to="12" departSpeed="max" departLane="random"/>
</routes>
