<?xml version="1.0" encoding="UTF-8"?>

<!-- generated on 2023-05-08 09:48:01 by Eclipse SUMO netedit Version 1.17.0
<configuration xmlns:xsi="http://www.w3.org/2001/XMLSchema-instance" xsi:noNamespaceSchemaLocation="http://sumo.dlr.de/xsd/netconvertConfiguration.xsd">

    <input>
        <sumo-net-file value="scenarios\two_lanes_merge\net.net.xml"/>
    </input>

    <output>
        <output-file value="scenarios\two_lanes_merge\net.net.xml"/>
    </output>

    <processing>
        <geometry.min-radius.fix.railways value="false"/>
        <geometry.max-grade.fix value="false"/>
        <offset.disable-normalization value="true"/>
        <lefthand value="0"/>
    </processing>

    <junctions>
        <no-internal-links value="true"/>
        <no-turnarounds value="true"/>
        <junctions.corner-detail value="5"/>
        <junctions.limit-turn-speed value="5.50"/>
        <rectangular-lane-cut value="0"/>
    </junctions>

    <pedestrian>
        <walkingareas value="0"/>
    </pedestrian>

</configuration>
-->

<net version="1.16" junctionCornerDetail="5" limitTurnSpeed="5.50" xmlns:xsi="http://www.w3.org/2001/XMLSchema-instance" xsi:noNamespaceSchemaLocation="http://sumo.dlr.de/xsd/net_file.xsd">

    <location netOffset="0.00,0.00" convBoundary="0.00,0.00,1500.00,0.00" origBoundary="-10000000000.00,-10000000000.00,10000000000.00,10000000000.00" projParameter="!"/>

    <edge id="01" from="0" to="1" priority="-1">
        <lane id="01_0" index="0" speed="13.89" length="750.00" shape="0.00,-4.80 746.00,-4.80"/>
        <lane id="01_1" index="1" speed="13.89" length="750.00" shape="0.00,-1.60 746.00,-1.60"/>
    </edge>
    <edge id="12" from="1" to="2" priority="-1">
        <lane id="12_0" index="0" speed="13.89" length="750.00" shape="754.00,-1.60 1500.00,-1.60"/>
    </edge>

    <junction id="0" type="dead_end" x="0.00" y="0.00" incLanes="" intLanes="" shape="0.00,0.00 0.00,-6.40"/>
    <junction id="1" type="zipper" x="750.00" y="0.00" incLanes="01_0 01_1" intLanes="" shape="754.00,0.00 754.00,-3.20 750.97,-4.03 749.03,-5.57 747.79,-6.16 746.00,-6.40 746.00,0.00">
        <request index="0" response="0" foes="0"/>
    </junction>
    <junction id="2" type="dead_end" x="1500.00" y="0.00" incLanes="12_0" intLanes="" shape="1500.00,-3.20 1500.00,0.00"/>

    <connection from="01" to="12" fromLane="1" toLane="0" dir="s" state="M"/>

</net>
