<?xml version="1.0" encoding="UTF-8"?>

<!-- generated on 2024-06-27 11:21:33 by Eclipse SUMO sumo Version 1.20.0
-->

<configuration xmlns:xsi="http://www.w3.org/2001/XMLSchema-instance" xsi:noNamespaceSchemaLocation="http://sumo.dlr.de/xsd/sumoConfiguration.xsd">

    <input>
        <net-file value="net.net.xml"/>
        <route-files value="demand.rou.xml"/>
        <additional-files value="vtypes.add.xml"/>
    </input>

</configuration>
