<additional>
    <vType id="legacy" color="1,0,0" tau="0.5" probability="0.09999999999999998" />
    <vType id="cv" color="0,0,1" />
    <vType id="cav" color="0,1,0" sigma="0.0" speedDev="0.0" speedFactor="1.0" tau="0.1" probability="0.9" /><!-- lcSpeedGain="0.0" lcStrategic="-1" lcKeepRight="0"/>-->
</additional>
