<?xml version="1.0" encoding="UTF-8"?>

<!-- generated on 2024-06-24 09:51:09 by Eclipse SUMO netedit Version 1.20.0
<configuration xmlns:xsi="http://www.w3.org/2001/XMLSchema-instance" xsi:noNamespaceSchemaLocation="http://sumo.dlr.de/xsd/neteditConfiguration.xsd">

    <input>
        <sumo-net-file value="pedestrian_crossing_tls.net.xml"/>
    </input>

    <output>
        <output-file value="pedestrian_crossing_tls.net.xml"/>
    </output>

    <processing>
        <geometry.min-radius.fix.railways value="false"/>
        <geometry.max-grade.fix value="false"/>
        <offset.disable-normalization value="true"/>
        <lefthand value="0"/>
    </processing>

    <junctions>
        <no-internal-links value="false"/>
        <no-turnarounds value="true"/>
        <junctions.corner-detail value="5"/>
        <junctions.limit-turn-speed value="5.50"/>
        <rectangular-lane-cut value="0"/>
    </junctions>

    <pedestrian>
        <walkingareas value="0"/>
    </pedestrian>

</configuration>
-->

<net version="1.20" junctionCornerDetail="5" limitTurnSpeed="5.50" xmlns:xsi="http://www.w3.org/2001/XMLSchema-instance" xsi:noNamespaceSchemaLocation="http://sumo.dlr.de/xsd/net_file.xsd">

    <location netOffset="0.00,0.00" convBoundary="-1000.00,0.00,500.10,1.00" origBoundary="-10000000000.00,-10000000000.00,10000000000.00,10000000000.00" projParameter="!"/>

    <edge id=":0_0" function="internal">
        <lane id=":0_0_0" index="0" disallow="pedestrian tram rail_urban rail rail_electric rail_fast ship container cable_car subway aircraft wheelchair drone" speed="13.89" length="3.00" shape="-1.50,-1.60 1.50,-1.60"/>
    </edge>
    <edge id=":1_0" function="internal">
        <lane id=":1_0_0" index="0" disallow="pedestrian tram rail_urban rail rail_electric rail_fast ship container cable_car subway aircraft wheelchair drone" speed="13.89" length="0.10" shape="10.00,-1.60 10.00,-1.60"/>
    </edge>
    <edge id=":1_w0" function="walkingarea">
        <lane id=":1_w0_0" index="0" allow="pedestrian" speed="2.78" length="0.10" width="2.00" shape="10.00,0.00 10.00,2.00 10.00,0.00"/>
    </edge>
    <edge id=":1_w1" function="walkingarea">
        <lane id=":1_w1_0" index="0" allow="pedestrian" speed="2.78" length="0.10" width="2.00" shape="10.00,-3.20 10.00,-5.20 10.00,-3.20"/>
    </edge>
    <edge id=":10_0" function="internal">
        <lane id=":10_0_0" index="0" disallow="pedestrian tram rail_urban rail rail_electric rail_fast ship container cable_car subway aircraft wheelchair drone" speed="13.89" length="0.10" shape="100.00,-1.60 100.00,-1.60"/>
    </edge>
    <edge id=":10_w0" function="walkingarea">
        <lane id=":10_w0_0" index="0" allow="pedestrian" speed="2.78" length="0.10" width="2.00" shape="100.00,0.00 100.00,2.00 100.00,0.00"/>
    </edge>
    <edge id=":10_w1" function="walkingarea">
        <lane id=":10_w1_0" index="0" allow="pedestrian" speed="2.78" length="0.10" width="2.00" shape="100.00,-3.20 100.00,-5.20 100.00,-3.20"/>
    </edge>
    <edge id=":11_0" function="internal">
        <lane id=":11_0_0" index="0" disallow="pedestrian tram rail_urban rail rail_electric rail_fast ship container cable_car subway aircraft wheelchair drone" speed="13.89" length="0.10" shape="110.05,-1.60 110.00,-1.60"/>
    </edge>
    <edge id=":11_w0" function="walkingarea">
        <lane id=":11_w0_0" index="0" allow="pedestrian" speed="2.78" length="0.10" width="2.00" shape="110.10,0.00 110.10,2.00 110.00,0.00"/>
    </edge>
    <edge id=":11_w1" function="walkingarea">
        <lane id=":11_w1_0" index="0" allow="pedestrian" speed="2.78" length="0.10" width="2.00" shape="110.00,-3.20 110.00,-5.20 110.05,-3.20"/>
    </edge>
    <edge id=":12_0" function="internal">
        <lane id=":12_0_0" index="0" disallow="pedestrian tram rail_urban rail rail_electric rail_fast ship container cable_car subway aircraft wheelchair drone" speed="13.89" length="0.10" shape="120.05,-1.60 120.00,-1.60"/>
    </edge>
    <edge id=":12_w0" function="walkingarea">
        <lane id=":12_w0_0" index="0" allow="pedestrian" speed="2.78" length="0.10" width="2.00" shape="120.10,0.00 120.10,2.00 120.00,0.00"/>
    </edge>
    <edge id=":12_w1" function="walkingarea">
        <lane id=":12_w1_0" index="0" allow="pedestrian" speed="2.78" length="0.10" width="2.00" shape="120.00,-3.20 120.00,-5.20 120.05,-3.20"/>
    </edge>
    <edge id=":13_0" function="internal">
        <lane id=":13_0_0" index="0" disallow="pedestrian tram rail_urban rail rail_electric rail_fast ship container cable_car subway aircraft wheelchair drone" speed="13.89" length="0.10" shape="130.05,-1.60 130.00,-1.60"/>
    </edge>
    <edge id=":13_w0" function="walkingarea">
        <lane id=":13_w0_0" index="0" allow="pedestrian" speed="2.78" length="0.10" width="2.00" shape="130.10,0.00 130.10,2.00 130.00,0.00"/>
    </edge>
    <edge id=":13_w1" function="walkingarea">
        <lane id=":13_w1_0" index="0" allow="pedestrian" speed="2.78" length="0.10" width="2.00" shape="130.00,-3.20 130.00,-5.20 130.05,-3.20"/>
    </edge>
    <edge id=":14_0" function="internal">
        <lane id=":14_0_0" index="0" disallow="pedestrian tram rail_urban rail rail_electric rail_fast ship container cable_car subway aircraft wheelchair drone" speed="13.89" length="0.10" shape="140.05,-1.60 140.00,-1.60"/>
    </edge>
    <edge id=":14_w0" function="walkingarea">
        <lane id=":14_w0_0" index="0" allow="pedestrian" speed="2.78" length="0.10" width="2.00" shape="140.10,0.00 140.10,2.00 140.00,0.00"/>
    </edge>
    <edge id=":14_w1" function="walkingarea">
        <lane id=":14_w1_0" index="0" allow="pedestrian" speed="2.78" length="0.10" width="2.00" shape="140.00,-3.20 140.00,-5.20 140.05,-3.20"/>
    </edge>
    <edge id=":15_0" function="internal">
        <lane id=":15_0_0" index="0" disallow="pedestrian tram rail_urban rail rail_electric rail_fast ship container cable_car subway aircraft wheelchair drone" speed="13.89" length="0.10" shape="150.05,-1.60 150.00,-1.60"/>
    </edge>
    <edge id=":15_w0" function="walkingarea">
        <lane id=":15_w0_0" index="0" allow="pedestrian" speed="2.78" length="0.10" width="2.00" shape="150.10,0.00 150.10,2.00 150.00,0.00"/>
    </edge>
    <edge id=":15_w1" function="walkingarea">
        <lane id=":15_w1_0" index="0" allow="pedestrian" speed="2.78" length="0.10" width="2.00" shape="150.00,-3.20 150.00,-5.20 150.05,-3.20"/>
    </edge>
    <edge id=":16_0" function="internal">
        <lane id=":16_0_0" index="0" disallow="pedestrian tram rail_urban rail rail_electric rail_fast ship container cable_car subway aircraft wheelchair drone" speed="13.89" length="0.10" shape="160.05,-1.60 160.00,-1.60"/>
    </edge>
    <edge id=":16_w0" function="walkingarea">
        <lane id=":16_w0_0" index="0" allow="pedestrian" speed="2.78" length="0.10" width="2.00" shape="160.10,0.00 160.10,2.00 160.00,0.00"/>
    </edge>
    <edge id=":16_w1" function="walkingarea">
        <lane id=":16_w1_0" index="0" allow="pedestrian" speed="2.78" length="0.10" width="2.00" shape="160.00,-3.20 160.00,-5.20 160.05,-3.20"/>
    </edge>
    <edge id=":17_0" function="internal">
        <lane id=":17_0_0" index="0" disallow="pedestrian tram rail_urban rail rail_electric rail_fast ship container cable_car subway aircraft wheelchair drone" speed="13.89" length="0.10" shape="170.05,-1.60 170.00,-1.60"/>
    </edge>
    <edge id=":17_w0" function="walkingarea">
        <lane id=":17_w0_0" index="0" allow="pedestrian" speed="2.78" length="0.10" width="2.00" shape="170.10,0.00 170.10,2.00 170.00,0.00"/>
    </edge>
    <edge id=":17_w1" function="walkingarea">
        <lane id=":17_w1_0" index="0" allow="pedestrian" speed="2.78" length="0.10" width="2.00" shape="170.00,-3.20 170.00,-5.20 170.05,-3.20"/>
    </edge>
    <edge id=":18_0" function="internal">
        <lane id=":18_0_0" index="0" disallow="pedestrian tram rail_urban rail rail_electric rail_fast ship container cable_car subway aircraft wheelchair drone" speed="13.89" length="0.10" shape="180.05,-1.60 180.00,-1.60"/>
    </edge>
    <edge id=":18_w0" function="walkingarea">
        <lane id=":18_w0_0" index="0" allow="pedestrian" speed="2.78" length="0.10" width="2.00" shape="180.10,0.00 180.10,2.00 180.00,0.00"/>
    </edge>
    <edge id=":18_w1" function="walkingarea">
        <lane id=":18_w1_0" index="0" allow="pedestrian" speed="2.78" length="0.10" width="2.00" shape="180.00,-3.20 180.00,-5.20 180.05,-3.20"/>
    </edge>
    <edge id=":19_0" function="internal">
        <lane id=":19_0_0" index="0" disallow="pedestrian tram rail_urban rail rail_electric rail_fast ship container cable_car subway aircraft wheelchair drone" speed="13.89" length="0.10" shape="190.05,-1.60 190.00,-1.60"/>
    </edge>
    <edge id=":19_w0" function="walkingarea">
        <lane id=":19_w0_0" index="0" allow="pedestrian" speed="2.78" length="0.10" width="2.00" shape="190.10,0.00 190.10,2.00 190.00,0.00"/>
    </edge>
    <edge id=":19_w1" function="walkingarea">
        <lane id=":19_w1_0" index="0" allow="pedestrian" speed="2.78" length="0.10" width="2.00" shape="190.00,-3.20 190.00,-5.20 190.05,-3.20"/>
    </edge>
    <edge id=":2_0" function="internal">
        <lane id=":2_0_0" index="0" disallow="pedestrian tram rail_urban rail rail_electric rail_fast ship container cable_car subway aircraft wheelchair drone" speed="13.89" length="0.10" shape="20.00,-1.60 20.00,-1.60"/>
    </edge>
    <edge id=":2_w0" function="walkingarea">
        <lane id=":2_w0_0" index="0" allow="pedestrian" speed="2.78" length="0.10" width="2.00" shape="20.00,0.00 20.00,2.00 20.00,0.00"/>
    </edge>
    <edge id=":2_w1" function="walkingarea">
        <lane id=":2_w1_0" index="0" allow="pedestrian" speed="2.78" length="0.10" width="2.00" shape="20.00,-3.20 20.00,-5.20 20.00,-3.20"/>
    </edge>
    <edge id=":20_0" function="internal">
        <lane id=":20_0_0" index="0" disallow="pedestrian tram rail_urban rail rail_electric rail_fast ship container cable_car subway aircraft wheelchair drone" speed="13.89" length="0.10" shape="200.05,-1.60 200.00,-1.60"/>
    </edge>
    <edge id=":20_w0" function="walkingarea">
        <lane id=":20_w0_0" index="0" allow="pedestrian" speed="2.78" length="0.10" width="2.00" shape="200.10,0.00 200.10,2.00 200.00,0.00"/>
    </edge>
    <edge id=":20_w1" function="walkingarea">
        <lane id=":20_w1_0" index="0" allow="pedestrian" speed="2.78" length="0.10" width="2.00" shape="200.00,-3.20 200.00,-5.20 200.05,-3.20"/>
    </edge>
    <edge id=":21_0" function="internal">
        <lane id=":21_0_0" index="0" disallow="pedestrian tram rail_urban rail rail_electric rail_fast ship container cable_car subway aircraft wheelchair drone" speed="13.89" length="0.10" shape="210.05,-1.60 210.00,-1.60"/>
    </edge>
    <edge id=":21_w0" function="walkingarea">
        <lane id=":21_w0_0" index="0" allow="pedestrian" speed="2.78" length="0.10" width="2.00" shape="210.10,0.00 210.10,2.00 210.00,0.00"/>
    </edge>
    <edge id=":21_w1" function="walkingarea">
        <lane id=":21_w1_0" index="0" allow="pedestrian" speed="2.78" length="0.10" width="2.00" shape="210.00,-3.20 210.00,-5.20 210.05,-3.20"/>
    </edge>
    <edge id=":22_0" function="internal">
        <lane id=":22_0_0" index="0" disallow="pedestrian tram rail_urban rail rail_electric rail_fast ship container cable_car subway aircraft wheelchair drone" speed="13.89" length="0.10" shape="220.05,-1.60 220.00,-1.60"/>
    </edge>
    <edge id=":22_w0" function="walkingarea">
        <lane id=":22_w0_0" index="0" allow="pedestrian" speed="2.78" length="0.10" width="2.00" shape="220.10,0.00 220.10,2.00 220.00,0.00"/>
    </edge>
    <edge id=":22_w1" function="walkingarea">
        <lane id=":22_w1_0" index="0" allow="pedestrian" speed="2.78" length="0.10" width="2.00" shape="220.00,-3.20 220.00,-5.20 220.05,-3.20"/>
    </edge>
    <edge id=":23_0" function="internal">
        <lane id=":23_0_0" index="0" disallow="pedestrian tram rail_urban rail rail_electric rail_fast ship container cable_car subway aircraft wheelchair drone" speed="13.89" length="0.10" shape="230.05,-1.60 230.00,-1.60"/>
    </edge>
    <edge id=":23_w0" function="walkingarea">
        <lane id=":23_w0_0" index="0" allow="pedestrian" speed="2.78" length="0.10" width="2.00" shape="230.10,0.00 230.10,2.00 230.00,0.00"/>
    </edge>
    <edge id=":23_w1" function="walkingarea">
        <lane id=":23_w1_0" index="0" allow="pedestrian" speed="2.78" length="0.10" width="2.00" shape="230.00,-3.20 230.00,-5.20 230.05,-3.20"/>
    </edge>
    <edge id=":24_0" function="internal">
        <lane id=":24_0_0" index="0" disallow="pedestrian tram rail_urban rail rail_electric rail_fast ship container cable_car subway aircraft wheelchair drone" speed="13.89" length="0.10" shape="240.05,-1.60 240.00,-1.60"/>
    </edge>
    <edge id=":24_w0" function="walkingarea">
        <lane id=":24_w0_0" index="0" allow="pedestrian" speed="2.78" length="0.10" width="2.00" shape="240.10,0.00 240.10,2.00 240.00,0.00"/>
    </edge>
    <edge id=":24_w1" function="walkingarea">
        <lane id=":24_w1_0" index="0" allow="pedestrian" speed="2.78" length="0.10" width="2.00" shape="240.00,-3.20 240.00,-5.20 240.05,-3.20"/>
    </edge>
    <edge id=":25_0" function="internal">
        <lane id=":25_0_0" index="0" disallow="pedestrian tram rail_urban rail rail_electric rail_fast ship container cable_car subway aircraft wheelchair drone" speed="13.89" length="4.00" shape="248.05,-1.60 252.05,-1.60"/>
    </edge>
    <edge id=":25_c0" function="crossing" crossingEdges="2526">
        <lane id=":25_c0_0" index="0" allow="pedestrian" speed="2.78" length="3.20" width="4.00" shape="250.05,-3.20 250.05,0.00" outlineShape="252.05,-3.20 252.05,0.10 248.05,1.00 248.05,2.00 252.05,2.00 252.05,0.00 248.05,0.00 248.05,-3.20 252.05,-3.20"/>
    </edge>
    <edge id=":25_w0" function="walkingarea">
        <lane id=":25_w0_0" index="0" allow="pedestrian" speed="2.78" length="2.82" width="4.00" shape="248.05,0.00 248.05,2.00 252.05,2.00 252.05,0.00 248.05,0.00"/>
    </edge>
    <edge id=":25_w1" function="walkingarea">
        <lane id=":25_w1_0" index="0" allow="pedestrian" speed="2.78" length="2.82" width="4.00" shape="248.05,-3.20 252.05,-3.20 252.05,-5.20 248.05,-5.20 248.05,-3.20"/>
    </edge>
    <edge id=":26_0" function="internal">
        <lane id=":26_0_0" index="0" disallow="pedestrian tram rail_urban rail rail_electric rail_fast ship container cable_car subway aircraft wheelchair drone" speed="13.89" length="0.10" shape="260.05,-1.60 260.00,-1.60"/>
    </edge>
    <edge id=":26_w0" function="walkingarea">
        <lane id=":26_w0_0" index="0" allow="pedestrian" speed="2.78" length="0.10" width="2.00" shape="260.10,0.00 260.10,2.00 260.00,0.00"/>
    </edge>
    <edge id=":26_w1" function="walkingarea">
        <lane id=":26_w1_0" index="0" allow="pedestrian" speed="2.78" length="0.10" width="2.00" shape="260.00,-3.20 260.00,-5.20 260.05,-3.20"/>
    </edge>
    <edge id=":27_0" function="internal">
        <lane id=":27_0_0" index="0" disallow="pedestrian tram rail_urban rail rail_electric rail_fast ship container cable_car subway aircraft wheelchair drone" speed="13.89" length="0.24" shape="270.00,-1.60 270.24,-1.60"/>
    </edge>
    <edge id=":27_w0" function="walkingarea">
        <lane id=":27_w0_0" index="0" allow="pedestrian" speed="2.78" length="0.31" width="2.00" shape="269.91,0.00 269.91,2.00 270.22,2.00 270.22,0.00"/>
    </edge>
    <edge id=":27_w1" function="walkingarea">
        <lane id=":27_w1_0" index="0" allow="pedestrian" speed="2.78" length="0.27" width="2.00" shape="270.26,-3.20 270.28,-5.20 270.00,-5.20 270.00,-3.20"/>
    </edge>
    <edge id=":28_0" function="internal">
        <lane id=":28_0_0" index="0" disallow="pedestrian tram rail_urban rail rail_electric rail_fast ship container cable_car subway aircraft wheelchair drone" speed="13.89" length="0.32" shape="279.90,-1.50 279.99,-1.52 280.05,-1.55 280.11,-1.58 280.20,-1.60"/>
    </edge>
    <edge id=":28_w0" function="walkingarea">
        <lane id=":28_w0_0" index="0" allow="pedestrian" speed="2.78" length="0.30" width="2.00" shape="279.90,0.00 279.90,2.00 280.20,2.00 280.20,0.00 280.13,0.01 280.08,0.03 280.04,0.05 280.00,0.07 279.95,0.09"/>
    </edge>
    <edge id=":28_w1" function="walkingarea">
        <lane id=":28_w1_0" index="0" allow="pedestrian" speed="2.78" length="0.32" width="2.00" shape="280.20,-3.20 280.20,-5.20 280.13,-5.19 280.09,-5.17 280.05,-5.15 280.02,-5.13 279.97,-5.11 279.91,-5.10 279.89,-3.10 279.98,-3.11 280.02,-3.13 280.06,-3.15 280.09,-3.17 280.14,-3.19"/>
    </edge>
    <edge id=":29_0" function="internal">
        <lane id=":29_0_0" index="0" disallow="pedestrian tram rail_urban rail rail_electric rail_fast ship container cable_car subway aircraft wheelchair drone" speed="13.89" length="0.10" shape="290.05,-1.60 290.00,-1.60"/>
    </edge>
    <edge id=":29_w0" function="walkingarea">
        <lane id=":29_w0_0" index="0" allow="pedestrian" speed="2.78" length="0.10" width="2.00" shape="290.10,0.00 290.10,2.00 290.00,0.00"/>
    </edge>
    <edge id=":29_w1" function="walkingarea">
        <lane id=":29_w1_0" index="0" allow="pedestrian" speed="2.78" length="0.10" width="2.00" shape="290.00,-3.20 290.00,-5.20 290.05,-3.20"/>
    </edge>
    <edge id=":3_0" function="internal">
        <lane id=":3_0_0" index="0" disallow="pedestrian tram rail_urban rail rail_electric rail_fast ship container cable_car subway aircraft wheelchair drone" speed="13.89" length="0.10" shape="30.00,-1.60 30.00,-1.60"/>
    </edge>
    <edge id=":3_w0" function="walkingarea">
        <lane id=":3_w0_0" index="0" allow="pedestrian" speed="2.78" length="0.10" width="2.00" shape="30.00,0.00 30.00,2.00 30.00,0.00"/>
    </edge>
    <edge id=":3_w1" function="walkingarea">
        <lane id=":3_w1_0" index="0" allow="pedestrian" speed="2.78" length="0.10" width="2.00" shape="30.00,-3.20 30.00,-5.20 30.00,-3.20"/>
    </edge>
    <edge id=":30_0" function="internal">
        <lane id=":30_0_0" index="0" disallow="pedestrian tram rail_urban rail rail_electric rail_fast ship container cable_car subway aircraft wheelchair drone" speed="13.89" length="0.10" shape="300.05,-1.60 300.00,-1.60"/>
    </edge>
    <edge id=":30_w0" function="walkingarea">
        <lane id=":30_w0_0" index="0" allow="pedestrian" speed="2.78" length="0.10" width="2.00" shape="300.10,0.00 300.10,2.00 300.00,0.00"/>
    </edge>
    <edge id=":30_w1" function="walkingarea">
        <lane id=":30_w1_0" index="0" allow="pedestrian" speed="2.78" length="0.10" width="2.00" shape="300.00,-3.20 300.00,-5.20 300.05,-3.20"/>
    </edge>
    <edge id=":31_0" function="internal">
        <lane id=":31_0_0" index="0" disallow="pedestrian tram rail_urban rail rail_electric rail_fast ship container cable_car subway aircraft wheelchair drone" speed="13.89" length="0.10" shape="310.05,-1.60 310.00,-1.60"/>
    </edge>
    <edge id=":31_w0" function="walkingarea">
        <lane id=":31_w0_0" index="0" allow="pedestrian" speed="2.78" length="0.10" width="2.00" shape="310.10,0.00 310.10,2.00 310.00,0.00"/>
    </edge>
    <edge id=":31_w1" function="walkingarea">
        <lane id=":31_w1_0" index="0" allow="pedestrian" speed="2.78" length="0.10" width="2.00" shape="310.00,-3.20 310.00,-5.20 310.05,-3.20"/>
    </edge>
    <edge id=":32_0" function="internal">
        <lane id=":32_0_0" index="0" disallow="pedestrian tram rail_urban rail rail_electric rail_fast ship container cable_car subway aircraft wheelchair drone" speed="13.89" length="0.10" shape="320.05,-1.60 320.00,-1.60"/>
    </edge>
    <edge id=":32_w0" function="walkingarea">
        <lane id=":32_w0_0" index="0" allow="pedestrian" speed="2.78" length="0.10" width="2.00" shape="320.10,0.00 320.10,2.00 320.00,0.00"/>
    </edge>
    <edge id=":32_w1" function="walkingarea">
        <lane id=":32_w1_0" index="0" allow="pedestrian" speed="2.78" length="0.10" width="2.00" shape="320.00,-3.20 320.00,-5.20 320.05,-3.20"/>
    </edge>
    <edge id=":33_0" function="internal">
        <lane id=":33_0_0" index="0" disallow="pedestrian tram rail_urban rail rail_electric rail_fast ship container cable_car subway aircraft wheelchair drone" speed="13.89" length="0.10" shape="330.05,-1.60 330.00,-1.60"/>
    </edge>
    <edge id=":33_w0" function="walkingarea">
        <lane id=":33_w0_0" index="0" allow="pedestrian" speed="2.78" length="0.10" width="2.00" shape="330.10,0.00 330.10,2.00 330.00,0.00"/>
    </edge>
    <edge id=":33_w1" function="walkingarea">
        <lane id=":33_w1_0" index="0" allow="pedestrian" speed="2.78" length="0.10" width="2.00" shape="330.00,-3.20 330.00,-5.20 330.05,-3.20"/>
    </edge>
    <edge id=":34_0" function="internal">
        <lane id=":34_0_0" index="0" disallow="pedestrian tram rail_urban rail rail_electric rail_fast ship container cable_car subway aircraft wheelchair drone" speed="13.89" length="0.10" shape="340.05,-1.60 340.00,-1.60"/>
    </edge>
    <edge id=":34_w0" function="walkingarea">
        <lane id=":34_w0_0" index="0" allow="pedestrian" speed="2.78" length="0.10" width="2.00" shape="340.10,0.00 340.10,2.00 340.00,0.00"/>
    </edge>
    <edge id=":34_w1" function="walkingarea">
        <lane id=":34_w1_0" index="0" allow="pedestrian" speed="2.78" length="0.10" width="2.00" shape="340.00,-3.20 340.00,-5.20 340.05,-3.20"/>
    </edge>
    <edge id=":35_0" function="internal">
        <lane id=":35_0_0" index="0" disallow="pedestrian tram rail_urban rail rail_electric rail_fast ship container cable_car subway aircraft wheelchair drone" speed="13.89" length="0.10" shape="350.05,-1.60 350.00,-1.60"/>
    </edge>
    <edge id=":35_w0" function="walkingarea">
        <lane id=":35_w0_0" index="0" allow="pedestrian" speed="2.78" length="0.10" width="2.00" shape="350.10,0.00 350.10,2.00 350.00,0.00"/>
    </edge>
    <edge id=":35_w1" function="walkingarea">
        <lane id=":35_w1_0" index="0" allow="pedestrian" speed="2.78" length="0.10" width="2.00" shape="350.00,-3.20 350.00,-5.20 350.05,-3.20"/>
    </edge>
    <edge id=":36_0" function="internal">
        <lane id=":36_0_0" index="0" disallow="pedestrian tram rail_urban rail rail_electric rail_fast ship container cable_car subway aircraft wheelchair drone" speed="13.89" length="0.10" shape="360.05,-1.60 360.00,-1.60"/>
    </edge>
    <edge id=":36_w0" function="walkingarea">
        <lane id=":36_w0_0" index="0" allow="pedestrian" speed="2.78" length="0.10" width="2.00" shape="360.10,0.00 360.10,2.00 360.00,0.00"/>
    </edge>
    <edge id=":36_w1" function="walkingarea">
        <lane id=":36_w1_0" index="0" allow="pedestrian" speed="2.78" length="0.10" width="2.00" shape="360.00,-3.20 360.00,-5.20 360.05,-3.20"/>
    </edge>
    <edge id=":37_0" function="internal">
        <lane id=":37_0_0" index="0" disallow="pedestrian tram rail_urban rail rail_electric rail_fast ship container cable_car subway aircraft wheelchair drone" speed="13.89" length="0.10" shape="370.05,-1.60 370.00,-1.60"/>
    </edge>
    <edge id=":37_w0" function="walkingarea">
        <lane id=":37_w0_0" index="0" allow="pedestrian" speed="2.78" length="0.10" width="2.00" shape="370.10,0.00 370.10,2.00 370.00,0.00"/>
    </edge>
    <edge id=":37_w1" function="walkingarea">
        <lane id=":37_w1_0" index="0" allow="pedestrian" speed="2.78" length="0.10" width="2.00" shape="370.00,-3.20 370.00,-5.20 370.05,-3.20"/>
    </edge>
    <edge id=":38_0" function="internal">
        <lane id=":38_0_0" index="0" disallow="pedestrian tram rail_urban rail rail_electric rail_fast ship container cable_car subway aircraft wheelchair drone" speed="13.89" length="0.10" shape="380.05,-1.60 380.00,-1.60"/>
    </edge>
    <edge id=":38_w0" function="walkingarea">
        <lane id=":38_w0_0" index="0" allow="pedestrian" speed="2.78" length="0.10" width="2.00" shape="380.10,0.00 380.10,2.00 380.00,0.00"/>
    </edge>
    <edge id=":38_w1" function="walkingarea">
        <lane id=":38_w1_0" index="0" allow="pedestrian" speed="2.78" length="0.10" width="2.00" shape="380.00,-3.20 380.00,-5.20 380.05,-3.20"/>
    </edge>
    <edge id=":39_0" function="internal">
        <lane id=":39_0_0" index="0" disallow="pedestrian tram rail_urban rail rail_electric rail_fast ship container cable_car subway aircraft wheelchair drone" speed="13.89" length="0.10" shape="390.05,-1.60 390.00,-1.60"/>
    </edge>
    <edge id=":39_w0" function="walkingarea">
        <lane id=":39_w0_0" index="0" allow="pedestrian" speed="2.78" length="0.10" width="2.00" shape="390.10,0.00 390.10,2.00 390.00,0.00"/>
    </edge>
    <edge id=":39_w1" function="walkingarea">
        <lane id=":39_w1_0" index="0" allow="pedestrian" speed="2.78" length="0.10" width="2.00" shape="390.00,-3.20 390.00,-5.20 390.05,-3.20"/>
    </edge>
    <edge id=":4_0" function="internal">
        <lane id=":4_0_0" index="0" disallow="pedestrian tram rail_urban rail rail_electric rail_fast ship container cable_car subway aircraft wheelchair drone" speed="13.89" length="0.10" shape="40.00,-1.60 40.00,-1.60"/>
    </edge>
    <edge id=":4_w0" function="walkingarea">
        <lane id=":4_w0_0" index="0" allow="pedestrian" speed="2.78" length="0.10" width="2.00" shape="40.00,0.00 40.00,2.00 40.00,0.00"/>
    </edge>
    <edge id=":4_w1" function="walkingarea">
        <lane id=":4_w1_0" index="0" allow="pedestrian" speed="2.78" length="0.10" width="2.00" shape="40.00,-3.20 40.00,-5.20 40.00,-3.20"/>
    </edge>
    <edge id=":40_0" function="internal">
        <lane id=":40_0_0" index="0" disallow="pedestrian tram rail_urban rail rail_electric rail_fast ship container cable_car subway aircraft wheelchair drone" speed="13.89" length="0.10" shape="400.05,-1.60 400.00,-1.60"/>
    </edge>
    <edge id=":40_w0" function="walkingarea">
        <lane id=":40_w0_0" index="0" allow="pedestrian" speed="2.78" length="0.10" width="2.00" shape="400.10,0.00 400.10,2.00 400.00,0.00"/>
    </edge>
    <edge id=":40_w1" function="walkingarea">
        <lane id=":40_w1_0" index="0" allow="pedestrian" speed="2.78" length="0.10" width="2.00" shape="400.00,-3.20 400.00,-5.20 400.05,-3.20"/>
    </edge>
    <edge id=":41_0" function="internal">
        <lane id=":41_0_0" index="0" disallow="pedestrian tram rail_urban rail rail_electric rail_fast ship container cable_car subway aircraft wheelchair drone" speed="13.89" length="0.10" shape="410.05,-1.60 410.00,-1.60"/>
    </edge>
    <edge id=":41_w0" function="walkingarea">
        <lane id=":41_w0_0" index="0" allow="pedestrian" speed="2.78" length="0.10" width="2.00" shape="410.10,0.00 410.10,2.00 410.00,0.00"/>
    </edge>
    <edge id=":41_w1" function="walkingarea">
        <lane id=":41_w1_0" index="0" allow="pedestrian" speed="2.78" length="0.10" width="2.00" shape="410.00,-3.20 410.00,-5.20 410.05,-3.20"/>
    </edge>
    <edge id=":42_0" function="internal">
        <lane id=":42_0_0" index="0" disallow="pedestrian tram rail_urban rail rail_electric rail_fast ship container cable_car subway aircraft wheelchair drone" speed="13.89" length="0.10" shape="420.05,-1.60 420.00,-1.60"/>
    </edge>
    <edge id=":42_w0" function="walkingarea">
        <lane id=":42_w0_0" index="0" allow="pedestrian" speed="2.78" length="0.10" width="2.00" shape="420.10,0.00 420.10,2.00 420.00,0.00"/>
    </edge>
    <edge id=":42_w1" function="walkingarea">
        <lane id=":42_w1_0" index="0" allow="pedestrian" speed="2.78" length="0.10" width="2.00" shape="420.00,-3.20 420.00,-5.20 420.05,-3.20"/>
    </edge>
    <edge id=":43_0" function="internal">
        <lane id=":43_0_0" index="0" disallow="pedestrian tram rail_urban rail rail_electric rail_fast ship container cable_car subway aircraft wheelchair drone" speed="13.89" length="0.10" shape="430.05,-1.60 430.00,-1.60"/>
    </edge>
    <edge id=":43_w0" function="walkingarea">
        <lane id=":43_w0_0" index="0" allow="pedestrian" speed="2.78" length="0.10" width="2.00" shape="430.10,0.00 430.10,2.00 430.00,0.00"/>
    </edge>
    <edge id=":43_w1" function="walkingarea">
        <lane id=":43_w1_0" index="0" allow="pedestrian" speed="2.78" length="0.10" width="2.00" shape="430.00,-3.20 430.00,-5.20 430.05,-3.20"/>
    </edge>
    <edge id=":44_0" function="internal">
        <lane id=":44_0_0" index="0" disallow="pedestrian tram rail_urban rail rail_electric rail_fast ship container cable_car subway aircraft wheelchair drone" speed="13.89" length="0.10" shape="440.05,-1.60 440.00,-1.60"/>
    </edge>
    <edge id=":44_w0" function="walkingarea">
        <lane id=":44_w0_0" index="0" allow="pedestrian" speed="2.78" length="0.10" width="2.00" shape="440.10,0.00 440.10,2.00 440.00,0.00"/>
    </edge>
    <edge id=":44_w1" function="walkingarea">
        <lane id=":44_w1_0" index="0" allow="pedestrian" speed="2.78" length="0.10" width="2.00" shape="440.00,-3.20 440.00,-5.20 440.05,-3.20"/>
    </edge>
    <edge id=":45_0" function="internal">
        <lane id=":45_0_0" index="0" disallow="pedestrian tram rail_urban rail rail_electric rail_fast ship container cable_car subway aircraft wheelchair drone" speed="13.89" length="0.10" shape="450.05,-1.60 450.00,-1.60"/>
    </edge>
    <edge id=":45_w0" function="walkingarea">
        <lane id=":45_w0_0" index="0" allow="pedestrian" speed="2.78" length="0.10" width="2.00" shape="450.10,0.00 450.10,2.00 450.00,0.00"/>
    </edge>
    <edge id=":45_w1" function="walkingarea">
        <lane id=":45_w1_0" index="0" allow="pedestrian" speed="2.78" length="0.10" width="2.00" shape="450.00,-3.20 450.00,-5.20 450.05,-3.20"/>
    </edge>
    <edge id=":46_0" function="internal">
        <lane id=":46_0_0" index="0" disallow="pedestrian tram rail_urban rail rail_electric rail_fast ship container cable_car subway aircraft wheelchair drone" speed="13.89" length="0.10" shape="460.05,-1.60 460.00,-1.60"/>
    </edge>
    <edge id=":46_w0" function="walkingarea">