<?xml version="1.0" encoding="UTF-8"?>

<!-- generated on 2024-06-18 15:23:26 by Eclipse SUMO netedit Version v1_19_0+1709-9893dd61bc5
<configuration xmlns:xsi="http://www.w3.org/2001/XMLSchema-instance" xsi:noNamespaceSchemaLocation="http://sumo.dlr.de/xsd/neteditConfiguration.xsd">

    <input>
        <sumo-net-file value="/home/wese-da/git/artery/scenarios/pedestrian_crossing/pedestrian_crossing_crossings.net.xml"/>
    </input>

    <output>
        <output-file value="/home/wese-da/git/artery/scenarios/pedestrian_crossing/pedestrian_crossing_crossings.net.xml"/>
    </output>

    <processing>
        <geometry.min-radius.fix.railways value="false"/>
        <geometry.max-grade.fix value="false"/>
        <offset.disable-normalization value="true"/>
        <lefthand value="0"/>
    </processing>

    <junctions>
        <no-internal-links value="false"/>
        <no-turnarounds value="true"/>
        <junctions.corner-detail value="5"/>
        <junctions.limit-turn-speed value="5.50"/>
        <rectangular-lane-cut value="0"/>
    </junctions>

    <pedestrian>
        <walkingareas value="true"/>
    </pedestrian>

</configuration>
-->

<net version="1.20" junctionCornerDetail="5" walkingareas="true" limitTurnSpeed="5.50" xmlns:xsi="http://www.w3.org/2001/XMLSchema-instance" xsi:noNamespaceSchemaLocation="http://sumo.dlr.de/xsd/net_file.xsd">

    <location netOffset="0.00,0.00" convBoundary="0.00,0.00,500.10,1.00" origBoundary="-10000000000.00,-10000000000.00,10000000000.00,10000000000.00" projParameter="!"/>

    <edge id=":1_0" function="internal">
        <lane id=":1_0_0" index="0" disallow="pedestrian tram rail_urban rail rail_electric rail_fast ship container cable_car subway aircraft wheelchair drone" speed="13.89" length="4.00" shape="8.00,-1.60 12.00,-1.60"/>
    </edge>
    <edge id=":1_c0" function="crossing" crossingEdges="12">
        <lane id=":1_c0_0" index="0" allow="pedestrian" speed="2.78" length="3.20" width="4.00" shape="10.00,-3.20 10.00,0.00"/>
    </edge>
    <edge id=":1_w0" function="walkingarea">
        <lane id=":1_w0_0" index="0" allow="pedestrian" speed="2.78" length="2.82" width="4.00" shape="8.00,0.00 8.00,2.00 12.00,2.00 12.00,0.00 8.00,0.00"/>
    </edge>
    <edge id=":1_w1" function="walkingarea">
        <lane id=":1_w1_0" index="0" allow="pedestrian" speed="2.78" length="2.82" width="4.00" shape="8.00,-3.20 12.00,-3.20 12.00,-5.20 8.00,-5.20 8.00,-3.20"/>
    </edge>
    <edge id=":10_0" function="internal">
        <lane id=":10_0_0" index="0" disallow="pedestrian tram rail_urban rail rail_electric rail_fast ship container cable_car subway aircraft wheelchair drone" speed="13.89" length="4.00" shape="98.00,-1.60 102.00,-1.60"/>
    </edge>
    <edge id=":10_c0" function="crossing" crossingEdges="1011">
        <lane id=":10_c0_0" index="0" allow="pedestrian" speed="2.78" length="3.20" width="4.00" shape="100.00,-3.20 100.00,0.00"/>
    </edge>
    <edge id=":10_w0" function="walkingarea">
        <lane id=":10_w0_0" index="0" allow="pedestrian" speed="2.78" length="2.83" width="4.00" shape="98.00,-0.00 98.00,2.00 102.00,2.00 102.00,-0.00 98.00,0.00"/>
    </edge>
    <edge id=":10_w1" function="walkingarea">
        <lane id=":10_w1_0" index="0" allow="pedestrian" speed="2.78" length="2.83" width="4.00" shape="98.00,-3.20 102.00,-3.20 102.00,-5.20 98.00,-5.20 98.00,-3.20"/>
    </edge>
    <edge id=":11_0" function="internal">
        <lane id=":11_0_0" index="0" disallow="pedestrian tram rail_urban rail rail_electric rail_fast ship container cable_car subway aircraft wheelchair drone" speed="13.89" length="4.00" shape="108.05,-1.60 112.05,-1.60"/>
    </edge>
    <edge id=":11_c0" function="crossing" crossingEdges="1112">
        <lane id=":11_c0_0" index="0" allow="pedestrian" speed="2.78" length="3.20" width="4.00" shape="110.05,-3.20 110.05,0.00"/>
    </edge>
    <edge id=":11_w0" function="walkingarea">
        <lane id=":11_w0_0" index="0" allow="pedestrian" speed="2.78" length="2.82" width="4.00" shape="108.05,-0.00 108.05,2.00 112.05,2.00 112.05,-0.00 108.05,0.00"/>
    </edge>
    <edge id=":11_w1" function="walkingarea">
        <lane id=":11_w1_0" index="0" allow="pedestrian" speed="2.78" length="2.83" width="4.00" shape="108.05,-3.20 112.05,-3.20 112.05,-5.20 108.05,-5.20 108.05,-3.20"/>
    </edge>
    <edge id=":12_0" function="internal">
        <lane id=":12_0_0" index="0" disallow="pedestrian tram rail_urban rail rail_electric rail_fast ship container cable_car subway aircraft wheelchair drone" speed="13.89" length="4.00" shape="118.05,-1.60 122.05,-1.60"/>
    </edge>
    <edge id=":12_c0" function="crossing" crossingEdges="1213">
        <lane id=":12_c0_0" index="0" allow="pedestrian" speed="2.78" length="3.20" width="4.00" shape="120.05,-3.20 120.05,0.00"/>
    </edge>
    <edge id=":12_w0" function="walkingarea">
        <lane id=":12_w0_0" index="0" allow="pedestrian" speed="2.78" length="2.82" width="4.00" shape="118.05,-0.00 118.05,2.00 122.05,2.00 122.05,-0.00 118.05,0.00"/>
    </edge>
    <edge id=":12_w1" function="walkingarea">
        <lane id=":12_w1_0" index="0" allow="pedestrian" speed="2.78" length="2.83" width="4.00" shape="118.05,-3.20 122.05,-3.20 122.05,-5.20 118.05,-5.20 118.05,-3.20"/>
    </edge>
    <edge id=":13_0" function="internal">
        <lane id=":13_0_0" index="0" disallow="pedestrian tram rail_urban rail rail_electric rail_fast ship container cable_car subway aircraft wheelchair drone" speed="13.89" length="4.00" shape="128.05,-1.60 132.05,-1.60"/>
    </edge>
    <edge id=":13_c0" function="crossing" crossingEdges="1314">
        <lane id=":13_c0_0" index="0" allow="pedestrian" speed="2.78" length="3.20" width="4.00" shape="130.05,-3.20 130.05,0.00"/>
    </edge>
    <edge id=":13_w0" function="walkingarea">
        <lane id=":13_w0_0" index="0" allow="pedestrian" speed="2.78" length="2.82" width="4.00" shape="128.05,-0.00 128.05,2.00 132.05,2.00 132.05,-0.00 128.05,0.00"/>
    </edge>
    <edge id=":13_w1" function="walkingarea">
        <lane id=":13_w1_0" index="0" allow="pedestrian" speed="2.78" length="2.83" width="4.00" shape="128.05,-3.20 132.05,-3.20 132.05,-5.20 128.05,-5.20 128.05,-3.20"/>
    </edge>
    <edge id=":14_0" function="internal">
        <lane id=":14_0_0" index="0" disallow="pedestrian tram rail_urban rail rail_electric rail_fast ship container cable_car subway aircraft wheelchair drone" speed="13.89" length="4.00" shape="138.05,-1.60 142.05,-1.60"/>
    </edge>
    <edge id=":14_c0" function="crossing" crossingEdges="1415">
        <lane id=":14_c0_0" index="0" allow="pedestrian" speed="2.78" length="3.20" width="4.00" shape="140.05,-3.20 140.05,0.00"/>
    </edge>
    <edge id=":14_w0" function="walkingarea">
        <lane id=":14_w0_0" index="0" allow="pedestrian" speed="2.78" length="2.82" width="4.00" shape="138.05,-0.00 138.05,2.00 142.05,2.00 142.05,-0.00 138.05,0.00"/>
    </edge>
    <edge id=":14_w1" function="walkingarea">
        <lane id=":14_w1_0" index="0" allow="pedestrian" speed="2.78" length="2.83" width="4.00" shape="138.05,-3.20 142.05,-3.20 142.05,-5.20 138.05,-5.20 138.05,-3.20"/>
    </edge>
    <edge id=":15_0" function="internal">
        <lane id=":15_0_0" index="0" disallow="pedestrian tram rail_urban rail rail_electric rail_fast ship container cable_car subway aircraft wheelchair drone" speed="13.89" length="4.00" shape="148.05,-1.60 152.05,-1.60"/>
    </edge>
    <edge id=":15_c0" function="crossing" crossingEdges="1516">
        <lane id=":15_c0_0" index="0" allow="pedestrian" speed="2.78" length="3.20" width="4.00" shape="150.05,-3.20 150.05,0.00"/>
    </edge>
    <edge id=":15_w0" function="walkingarea">
        <lane id=":15_w0_0" index="0" allow="pedestrian" speed="2.78" length="2.82" width="4.00" shape="148.05,-0.00 148.05,2.00 152.05,2.00 152.05,-0.00 148.05,0.00"/>
    </edge>
    <edge id=":15_w1" function="walkingarea">
        <lane id=":15_w1_0" index="0" allow="pedestrian" speed="2.78" length="2.83" width="4.00" shape="148.05,-3.20 152.05,-3.20 152.05,-5.20 148.05,-5.20 148.05,-3.20"/>
    </edge>
    <edge id=":16_0" function="internal">
        <lane id=":16_0_0" index="0" disallow="pedestrian tram rail_urban rail rail_electric rail_fast ship container cable_car subway aircraft wheelchair drone" speed="13.89" length="4.00" shape="158.05,-1.60 162.05,-1.60"/>
    </edge>
    <edge id=":16_c0" function="crossing" crossingEdges="1617">
        <lane id=":16_c0_0" index="0" allow="pedestrian" speed="2.78" length="3.20" width="4.00" shape="160.05,-3.20 160.05,0.00"/>
    </edge>
    <edge id=":16_w0" function="walkingarea">
        <lane id=":16_w0_0" index="0" allow="pedestrian" speed="2.78" length="2.82" width="4.00" shape="158.05,-0.00 158.05,2.00 162.05,2.00 162.05,-0.00 158.05,0.00"/>
    </edge>
    <edge id=":16_w1" function="walkingarea">
        <lane id=":16_w1_0" index="0" allow="pedestrian" speed="2.78" length="2.83" width="4.00" shape="158.05,-3.20 162.05,-3.20 162.05,-5.20 158.05,-5.20 158.05,-3.20"/>
    </edge>
    <edge id=":17_0" function="internal">
        <lane id=":17_0_0" index="0" disallow="pedestrian tram rail_urban rail rail_electric rail_fast ship container cable_car subway aircraft wheelchair drone" speed="13.89" length="4.00" shape="168.05,-1.60 172.05,-1.60"/>
    </edge>
    <edge id=":17_c0" function="crossing" crossingEdges="1718">
        <lane id=":17_c0_0" index="0" allow="pedestrian" speed="2.78" length="3.20" width="4.00" shape="170.05,-3.20 170.05,0.00"/>
    </edge>
    <edge id=":17_w0" function="walkingarea">
        <lane id=":17_w0_0" index="0" allow="pedestrian" speed="2.78" length="2.82" width="4.00" shape="168.05,-0.00 168.05,2.00 172.05,2.00 172.05,-0.00 168.05,0.00"/>
    </edge>
    <edge id=":17_w1" function="walkingarea">
        <lane id=":17_w1_0" index="0" allow="pedestrian" speed="2.78" length="2.83" width="4.00" shape="168.05,-3.20 172.05,-3.20 172.05,-5.20 168.05,-5.20 168.05,-3.20"/>
    </edge>
    <edge id=":18_0" function="internal">
        <lane id=":18_0_0" index="0" disallow="pedestrian tram rail_urban rail rail_electric rail_fast ship container cable_car subway aircraft wheelchair drone" speed="13.89" length="4.00" shape="178.05,-1.60 182.05,-1.60"/>
    </edge>
    <edge id=":18_c0" function="crossing" crossingEdges="1819">
        <lane id=":18_c0_0" index="0" allow="pedestrian" speed="2.78" length="3.20" width="4.00" shape="180.05,-3.20 180.05,0.00"/>
    </edge>
    <edge id=":18_w0" function="walkingarea">
        <lane id=":18_w0_0" index="0" allow="pedestrian" speed="2.78" length="2.82" width="4.00" shape="178.05,-0.00 178.05,2.00 182.05,2.00 182.05,-0.00 178.05,0.00"/>
    </edge>
    <edge id=":18_w1" function="walkingarea">
        <lane id=":18_w1_0" index="0" allow="pedestrian" speed="2.78" length="2.83" width="4.00" shape="178.05,-3.20 182.05,-3.20 182.05,-5.20 178.05,-5.20 178.05,-3.20"/>
    </edge>
    <edge id=":19_0" function="internal">
        <lane id=":19_0_0" index="0" disallow="pedestrian tram rail_urban rail rail_electric rail_fast ship container cable_car subway aircraft wheelchair drone" speed="13.89" length="4.00" shape="188.05,-1.60 192.05,-1.60"/>
    </edge>
    <edge id=":19_c0" function="crossing" crossingEdges="1920">
        <lane id=":19_c0_0" index="0" allow="pedestrian" speed="2.78" length="3.20" width="4.00" shape="190.05,-3.20 190.05,0.00"/>
    </edge>
    <edge id=":19_w0" function="walkingarea">
        <lane id=":19_w0_0" index="0" allow="pedestrian" speed="2.78" length="2.82" width="4.00" shape="188.05,-0.00 188.05,2.00 192.05,2.00 192.05,-0.00 188.05,0.00"/>
    </edge>
    <edge id=":19_w1" function="walkingarea">
        <lane id=":19_w1_0" index="0" allow="pedestrian" speed="2.78" length="2.83" width="4.00" shape="188.05,-3.20 192.05,-3.20 192.05,-5.20 188.05,-5.20 188.05,-3.20"/>
    </edge>
    <edge id=":2_0" function="internal">
        <lane id=":2_0_0" index="0" disallow="pedestrian tram rail_urban rail rail_electric rail_fast ship container cable_car subway aircraft wheelchair drone" speed="13.89" length="4.00" shape="18.00,-1.60 22.00,-1.60"/>
    </edge>
    <edge id=":2_c0" function="crossing" crossingEdges="23">
        <lane id=":2_c0_0" index="0" allow="pedestrian" speed="2.78" length="3.20" width="4.00" shape="20.00,-3.20 20.00,0.00"/>
    </edge>
    <edge id=":2_w0" function="walkingarea">
        <lane id=":2_w0_0" index="0" allow="pedestrian" speed="2.78" length="2.82" width="4.00" shape="18.00,0.00 18.00,2.00 22.00,2.00 22.00,0.00 18.00,0.00"/>
    </edge>
    <edge id=":2_w1" function="walkingarea">
        <lane id=":2_w1_0" index="0" allow="pedestrian" speed="2.78" length="2.82" width="4.00" shape="18.00,-3.20 22.00,-3.20 22.00,-5.20 18.00,-5.20 18.00,-3.20"/>
    </edge>
    <edge id=":20_0" function="internal">
        <lane id=":20_0_0" index="0" disallow="pedestrian tram rail_urban rail rail_electric rail_fast ship container cable_car subway aircraft wheelchair drone" speed="13.89" length="4.00" shape="198.05,-1.60 202.05,-1.60"/>
    </edge>
    <edge id=":20_c0" function="crossing" crossingEdges="2021">
        <lane id=":20_c0_0" index="0" allow="pedestrian" speed="2.78" length="3.20" width="4.00" shape="200.05,-3.20 200.05,0.00"/>
    </edge>
    <edge id=":20_w0" function="walkingarea">
        <lane id=":20_w0_0" index="0" allow="pedestrian" speed="2.78" length="2.82" width="4.00" shape="198.05,-0.00 198.05,2.00 202.05,2.00 202.05,-0.00 198.05,0.00"/>
    </edge>
    <edge id=":20_w1" function="walkingarea">
        <lane id=":20_w1_0" index="0" allow="pedestrian" speed="2.78" length="2.83" width="4.00" shape="198.05,-3.20 202.05,-3.20 202.05,-5.20 198.05,-5.20 198.05,-3.20"/>
    </edge>
    <edge id=":21_0" function="internal">
        <lane id=":21_0_0" index="0" disallow="pedestrian tram rail_urban rail rail_electric rail_fast ship container cable_car subway aircraft wheelchair drone" speed="13.89" length="4.00" shape="208.05,-1.60 212.05,-1.60"/>
    </edge>
    <edge id=":21_c0" function="crossing" crossingEdges="2122">
        <lane id=":21_c0_0" index="0" allow="pedestrian" speed="2.78" length="3.20" width="4.00" shape="210.05,-3.20 210.05,0.00"/>
    </edge>
    <edge id=":21_w0" function="walkingarea">
        <lane id=":21_w0_0" index="0" allow="pedestrian" speed="2.78" length="2.82" width="4.00" shape="208.05,-0.00 208.05,2.00 212.05,2.00 212.05,-0.00 208.05,0.00"/>
    </edge>
    <edge id=":21_w1" function="walkingarea">
        <lane id=":21_w1_0" index="0" allow="pedestrian" speed="2.78" length="2.83" width="4.00" shape="208.05,-3.20 212.05,-3.20 212.05,-5.20 208.05,-5.20 208.05,-3.20"/>
    </edge>
    <edge id=":22_0" function="internal">
        <lane id=":22_0_0" index="0" disallow="pedestrian tram rail_urban rail rail_electric rail_fast ship container cable_car subway aircraft wheelchair drone" speed="13.89" length="4.00" shape="218.05,-1.60 222.05,-1.60"/>
    </edge>
    <edge id=":22_c0" function="crossing" crossingEdges="2223">
        <lane id=":22_c0_0" index="0" allow="pedestrian" speed="2.78" length="3.20" width="4.00" shape="220.05,-3.20 220.05,0.00"/>
    </edge>
    <edge id=":22_w0" function="walkingarea">
        <lane id=":22_w0_0" index="0" allow="pedestrian" speed="2.78" length="2.82" width="4.00" shape="218.05,-0.00 218.05,2.00 222.05,2.00 222.05,-0.00 218.05,0.00"/>
    </edge>
    <edge id=":22_w1" function="walkingarea">
        <lane id=":22_w1_0" index="0" allow="pedestrian" speed="2.78" length="2.83" width="4.00" shape="218.05,-3.20 222.05,-3.20 222.05,-5.20 218.05,-5.20 218.05,-3.20"/>
    </edge>
    <edge id=":23_0" function="internal">
        <lane id=":23_0_0" index="0" disallow="pedestrian tram rail_urban rail rail_electric rail_fast ship container cable_car subway aircraft wheelchair drone" speed="13.89" length="4.00" shape="228.05,-1.60 232.05,-1.60"/>
    </edge>
    <edge id=":23_c0" function="crossing" crossingEdges="2324">
        <lane id=":23_c0_0" index="0" allow="pedestrian" speed="2.78" length="3.20" width="4.00" shape="230.05,-3.20 230.05,0.00"/>
    </edge>
    <edge id=":23_w0" function="walkingarea">
        <lane id=":23_w0_0" index="0" allow="pedestrian" speed="2.78" length="2.82" width="4.00" shape="228.05,-0.00 228.05,2.00 232.05,2.00 232.05,-0.00 228.05,0.00"/>
    </edge>
    <edge id=":23_w1" function="walkingarea">
        <lane id=":23_w1_0" index="0" allow="pedestrian" speed="2.78" length="2.83" width="4.00" shape="228.05,-3.20 232.05,-3.20 232.05,-5.20 228.05,-5.20 228.05,-3.20"/>
    </edge>
    <edge id=":24_0" function="internal">
        <lane id=":24_0_0" index="0" disallow="pedestrian tram rail_urban rail rail_electric rail_fast ship container cable_car subway aircraft wheelchair drone" speed="13.89" length="4.00" shape="238.05,-1.60 242.05,-1.60"/>
    </edge>
    <edge id=":24_c0" function="crossing" crossingEdges="2425">
        <lane id=":24_c0_0" index="0" allow="pedestrian" speed="2.78" length="3.20" width="4.00" shape="240.05,-3.20 240.05,0.00"/>
    </edge>
    <edge id=":24_w0" function="walkingarea">
        <lane id=":24_w0_0" index="0" allow="pedestrian" speed="2.78" length="2.82" width="4.00" shape="238.05,-0.00 238.05,2.00 242.05,2.00 242.05,-0.00 238.05,0.00"/>
    </edge>
    <edge id=":24_w1" function="walkingarea">
        <lane id=":24_w1_0" index="0" allow="pedestrian" speed="2.78" length="2.83" width="4.00" shape="238.05,-3.20 242.05,-3.20 242.05,-5.20 238.05,-5.20 238.05,-3.20"/>
    </edge>
    <edge id=":25_0" function="internal">
        <lane id=":25_0_0" index="0" disallow="pedestrian tram rail_urban rail rail_electric rail_fast ship container cable_car subway aircraft wheelchair drone" speed="13.89" length="4.00" shape="248.05,-1.60 252.05,-1.60"/>
    </edge>
    <edge id=":25_c0" function="crossing" crossingEdges="2425">
        <lane id=":25_c0_0" index="0" allow="pedestrian" speed="2.78" length="3.20" width="4.00" shape="250.05,0.00 250.05,-3.20"/>
    </edge>
    <edge id=":25_w0" function="walkingarea">
        <lane id=":25_w0_0" index="0" allow="pedestrian" speed="2.78" length="2.82" width="4.00" shape="252.05,0.00 248.05,-0.00 248.05,2.00 252.05,2.00 252.05,-0.00"/>
    </edge>
    <edge id=":25_w1" function="walkingarea">
        <lane id=":25_w1_0" index="0" allow="pedestrian" speed="2.78" length="2.83" width="4.00" shape="252.05,-3.20 252.05,-5.20 248.05,-5.20 248.05,-3.20 252.05,-3.20"/>
    </edge>
    <edge id=":26_0" function="internal">
        <lane id=":26_0_0" index="0" disallow="pedestrian tram rail_urban rail rail_electric rail_fast ship container cable_car subway aircraft wheelchair drone" speed="13.89" length="4.00" shape="258.05,-1.60 262.05,-1.60"/>
    </edge>
    <edge id=":26_c0" function="crossing" crossingEdges="2627">
        <lane id=":26_c0_0" index="0" allow="pedestrian" speed="2.78" length="3.20" width="4.00" shape="260.05,-3.20 260.05,-0.00"/>
    </edge>
    <edge id=":26_w0" function="walkingarea">
        <lane id=":26_w0_0" index="0" allow="pedestrian" speed="2.78" length="2.82" width="4.00" shape="258.05,-0.00 258.05,2.00 262.05,2.00 262.05,-0.00 258.05,-0.00"/>
    </edge>
    <edge id=":26_w1" function="walkingarea">
        <lane id=":26_w1_0" index="0" allow="pedestrian" speed="2.78" length="2.83" width="4.00" shape="258.05,-3.20 262.05,-3.20 262.05,-5.20 258.05,-5.20 258.05,-3.20"/>
    </edge>
    <edge id=":27_0" function="internal">
        <lane id=":27_0_0" index="0" disallow="pedestrian tram rail_urban rail rail_electric rail_fast ship container cable_car subway aircraft wheelchair drone" speed="13.89" length="4.04" shape="268.06,-1.60 272.10,-1.58"/>
    </edge>
    <edge id=":27_c0" function="crossing" crossingEdges="2728">
        <lane id=":27_c0_0" index="0" allow="pedestrian" speed="2.78" length="3.20" width="4.00" shape="270.11,-3.20 270.08,0.00"/>
    </edge>
    <edge id=":27_w0" function="walkingarea">
        <lane id=":27_w0_0" index="0" allow="pedestrian" speed="2.78" length="2.83" width="4.00" shape="268.06,-0.00 268.06,2.00 272.07,2.00 272.07,-0.00 268.08,-0.02"/>
    </edge>
    <edge id=":27_w1" function="walkingarea">
        <lane id=":27_w1_0" index="0" allow="pedestrian" speed="2.78" length="2.86" width="4.00" shape="268.11,-3.22 272.11,-3.18 272.13,-5.18 268.06,-5.20 268.06,-3.20"/>
    </edge>
    <edge id=":28_0" function="internal">
        <lane id=":28_0_0" index="0" disallow="pedestrian tram rail_urban rail rail_electric rail_fast ship container cable_car subway aircraft wheelchair drone" speed="13.89" length="4.00" shape="278.05,-1.52 282.05,-1.60"/>
    </edge>
    <edge id=":28_c0" function="crossing" crossingEdges="2829">
        <lane id=":28_c0_0" index="0" allow="pedestrian" speed="2.78" length="3.20" width="4.00" shape="280.05,-3.20 280.05,0.00"/>
    </edge>
    <edge id=":28_w0" function="walkingarea">
        <lane id=":28_w0_0" index="0" allow="pedestrian" speed="2.78" length="2.82" width="4.00" shape="278.05,-0.00 278.05,2.00 282.05,2.00 282.05,-0.00 278.05,0.00"/>
    </edge>
    <edge id=":28_w1" function="walkingarea">
        <lane id=":28_w1_0" index="0" allow="pedestrian" speed="2.78" length="2.81" width="4.00" shape="278.05,-3.20 282.05,-3.20 282.05,-5.20 278.06,-5.12 278.04,-3.12"/>
    </edge>
    <edge id=":29_0" function="internal">
        <lane id=":29_0_0" index="0" disallow="pedestrian tram rail_urban rail rail_electric rail_fast ship container cable_car subway aircraft wheelchair drone" speed="13.89" length="4.00" shape="288.05,-1.60 292.05,-1.60"/>
    </edge>
    <edge id=":29_c0" function="crossing" crossingEdges="2930">
        <lane id=":29_c0_0" index="0" allow="pedestrian" speed="2.78" length="3.20" width="4.00" shape="290.05,-3.20 290.05,0.00"/>
    </edge>
    <edge id=":29_w0" function="walkingarea">
        <lane id=":29_w0_0" index="0" allow="pedestrian" speed="2.78" length="2.82" width="4.00" shape="288.05,-0.00 288.05,2.00 292.05,2.00 292.05,-0.00 288.05,0.00"/>
    </edge>
    <edge id=":29_w1" function="walkingarea">
        <lane id=":29_w1_0" index="0" allow="pedestrian" speed="2.78" length="2.83" width="4.00" shape="288.05,-3.20 292.05,-3.20 292.05,-5.20 288.05,-5.20 288.05,-3.20"/>
    </edge>
    <edge id=":3_0" function="internal">
        <lane id=":3_0_0" index="0" disallow="pedestrian tram rail_urban rail rail_electric rail_fast ship container cable_car subway aircraft wheelchair drone" speed="13.89" length="4.00" shape="28.00,-1.60 32.00,-1.60"/>
    </edge>
    <edge id=":3_c0" function="crossing" crossingEdges="34">
        <lane id=":3_c0_0" index="0" allow="pedestrian" speed="2.78" length="3.20" width="4.00" shape="30.00,-3.20 30.00,0.00"/>
    </edge>
    <edge id=":3_w0" function="walkingarea">
        <lane id=":3_w0_0" index="0" allow="pedestrian" speed="2.78" length="2.82" width="4.00" shape="28.00,0.00 28.00,2.00 32.00,2.00 32.00,0.00 28.00,0.00"/>
    </edge>
    <edge id=":3_w1" function="walkingarea">
        <lane id=":3_w1_0" index="0" allow="pedestrian" speed="2.78" length="2.82" width="4.00" shape="28.00,-3.20 32.00,-3.20 32.00,-5.20 28.00,-5.20 28.00,-3.20"/>
    </edge>
    <edge id=":30_0" function="internal">
        <lane id=":30_0_0" index="0" disallow="pedestrian tram rail_urban rail rail_electric rail_fast ship container cable_car subway aircraft wheelchair drone" speed="13.89" length="4.00" shape="298.05,-1.60 302.05,-1.60"/>
    </edge>
    <edge id=":30_c0" function="crossing" crossingEdges="3031">
        <lane id=":30_c0_0" index="0" allow="pedestrian" speed="2.78" length="3.20" width="4.00" shape="300.05,-3.20 300.05,0.00"/>
    </edge>
    <edge id=":30_w0" function="walkingarea">
        <lane id=":30_w0_0" index="0" allow="pedestrian" speed="2.78" length="2.82" width="4.00" shape="298.05,-0.00 298.05,2.00 302.05,2.00 302.05,-0.00 298.05,0.00"/>
    </edge>
    <edge id=":30_w1" function="walkingarea">
        <lane id=":30_w1_0" index="0" allow="pedestrian" speed="2.78" length="2.83" width="4.00" shape="298.05,-3.20 302.05,-3.20 302.05,-5.20 298.05,-5.20 298.05,-3.20"/>
    </edge>
    <edge id=":31_0" function="internal">
        <lane id=":31_0_0" index="0" disallow="pedestrian tram rail_urban rail rail_electric rail_fast ship container cable_car subway aircraft wheelchair drone" speed="13.89" length="4.00" shape="308.05,-1.60 312.05,-1.60"/>
    </edge>
    <edge id=":31_c0" function="crossing" crossingEdges="3132">
        <lane id=":31_c0_0" index="0" allow="pedestrian" speed="2.78" length="3.20" width="4.00" shape="310.05,-3.20 310.05,0.00"/>
    </edge>
    <edge id=":31_w0" function="walkingarea">
        <lane id=":31_w0_0" index="0" allow="pedestrian" speed="2.78" length="2.82" width="4.00" shape="308.05,-0.00 308.05,2.00 312.05,2.00 312.05,-0.00 308.05,0.00"/>
    </edge>
    <edge id=":31_w1" function="walkingarea">
        <lane id=":31_w1_0" index="0" allow="pedestrian" speed="2.78" length="2.83" width="4.00" shape="308.05,-3.20 312.05,-3.20 312.05,-5.20 308.05,-5.20 308.05,-3.20"/>
    </edge>
    <edge id=":32_0" function="internal">
        <lane id=":32_0_0" index="0" disallow="pedestrian tram rail_urban rail rail_electric rail_fast ship container cable_car subway aircraft wheelchair drone" speed="13.89" length="4.00" shape="318.05,-1.60 322.05,-1.60"/>
    </edge>
    <edge id=":32_c0" function="crossing" crossingEdges="3233">
        <lane id=":32_c0_0" index="0" allow="pedestrian" speed="2.78" length="3.20" width="4.00" shape="320.05,-3.20 320.05,0.00"/>
    </edge>
    <edge id=":32_w0" function="walkingarea">
        <lane id=":32_w0_0" index="0" allow="pedestrian" speed="2.78" length="2.82" width="4.00" shape="318.05,-0.00 318.05,2.00 322.05,2.00 322.05,-0.00 318.05,0.00"/>
    </edge>
    <edge id=":32_w1" function="walkingarea">
        <lane id=":32_w1_0" index="0" allow="pedestrian" speed="2.78" length="2.83" width="4.00" shape="318.05,-3.20 322.05,-3.20 322.05,-5.20 318.05,-5.20 318.05,-3.20"/>
    </edge>
    <edge id=":33_0" function="internal">
        <lane id=":33_0_0" index="0" disallow="pedestrian tram rail_urban rail rail_electric rail_fast ship container cable_car subway aircraft wheelchair drone" speed="13.89" length="4.00" shape="328.05,-1.60 332.05,-1.60"/>
    </edge>
    <edge id=":33_c0" function="crossing" crossingEdges="3334">
        <lane id=":33_c0_0" index="0" allow="pedestrian" speed="2.78" length="3.20" width="4.00" shape="330.05,-3.20 330.05,0.00"/>
    </edge>
    <edge id=":33_w0" function="walkingarea">
        <lane id=":33_w0_0" index="0" allow="pedestrian" speed="2.78" length="2.82" width="4.00" shape="328.05,-0.00 328.05,2.00 332.05,2.00 332.05,-0.00 328.05,0.00"/>
    </edge>
    <edge id=":33_w1" function="walkingarea">
        <lane id=":33_w1_0" index="0" allow="pedestrian" speed="2.78" length="2.83" width="4.00" shape="328.05,-3.20 332.05,-3.20 332.05,-5.20 328.05,-5.20 328.05,-3.20"/>
    </edge>
    <edge id=":34_0" function="internal">
        <lane id=":34_0_0" index="0" disallow="pedestrian tram rail_urban rail rail_electric rail_fast ship container cable_car subway aircraft wheelchair drone" speed="13.89" length="4.00" shape="338.05,-1.60 342.05,-1.60"/>
    </edge>
    <edge id=":34_c0" function="crossing" crossingEdges="3435">
        <lane id=":34_c0_0" index="0" allow="pedestrian" speed="2.78" length="3.20" width="4.00" shape="340.05,-3.20 340.05,0.00"/>
    </edge>
    <edge id=":34_w0" function="walkingarea">
        <lane id=":34_w0_0" index="0" allow="pedestrian" speed="2.78" length="2.82" width="4.00" shape="338.05,-0.00 338.05,2.00 342.05,2.00 342.05,-0.00 338.05,0.00"/>
    </edge>
    <edge id=":34_w1" function="walkingarea">
        <lane id=":34_w1_0" index="0" allow="pedestrian" speed="2.78" length="2.83" width="4.00" shape="338.05,-3.20 342.05,-3.20 342.05,-5.20 338.05,-5.20 338.05,-3.20"/>
    </edge>
    <edge id=":35_0" function="internal">
        <lane id=":35_0_0" index="0" disallow="pedestrian tram rail_urban rail rail_electric rail_fast ship container cable_car subway aircraft wheelchair drone" speed="13.89" length="4.00" shape="348.05,-1.60 352.05,-1.60"/>
    </edge>
    <edge id=":35_c0" function="crossing" crossingEdges="3536">
        <lane id=":35_c0_0" index="0" allow="pedestrian" speed="2.78" length="3.20" width="4.00" shape="350.05,-3.20 350.05,0.00"/>
    </edge>
    <edge id=":35_w0" function="walkingarea">
        <lane id=":35_w0_0" index="0" allow="pedestrian" speed="2.78" length="2.82" width="4.00" shape="348.05,-0.00 348.05,2.00 352.05,2.00 352.05,-0.00 348.05,0.00"/>
    </edge>
    <edge id=":35_w1" function="walkingarea">
        <lane id=":35_w1_0" index="0" allow="pedestrian" speed="2.78" length="2.83" width="4.00" shape="348.05,-3.20 352.05,-3.20 352.05,-5.20 348.05,-5.20 348.05,-3.20"/>
    </edge>
    <edge id=":36_0" function="internal">
        <lane id=":36_0_0" index="0" disallow="pedestrian tram rail_urban rail rail_electric rail_fast ship container cable_car subway aircraft wheelchair drone" speed="13.89" length="4.00" shape="358.05,-1.60 362.05,-1.60"/>
    </edge>
    <edge id=":36_c0" function="crossing" crossingEdges="3637">
        <lane id=":36_c0_0" index="0" allow="pedestrian" speed="2.78" length="3.20" width="4.00" shape="360.05,-3.20 360.05,0.00"/>
    </edge>
    <edge id=":36_w0" function="walkingarea">
        <lane id=":36_w0_0" index="0" allow="pedestrian" speed="2.78" length="2.82" width="4.00" shape="358.05,-0.00 358.05,2.00 362.05,2.00 362.05,-0.00 358.05,0.00"/>
    </edge>
    <edge id=":36_w1" function="walkingarea">
        <lane id=":36_w1_0" index="0" allow="pedestrian" speed="2.78" length="2.83" width="4.00" shape="358.05,-3.20 362.05,-3.20 362.05,-5.20 358.05,-5.20 358.05,-3.20"/>
    </edge>
    <edge id=":37_0" function="internal">