<?xml version="1.0" encoding="UTF-8"?>

<!-- generated on 2024-06-18 15:17:17 by Eclipse SUMO netedit Version v1_19_0+1709-9893dd61bc5
<configuration xmlns:xsi="http://www.w3.org/2001/XMLSchema-instance" xsi:noNamespaceSchemaLocation="http://sumo.dlr.de/xsd/neteditConfiguration.xsd">

    <input>
        <sumo-net-file value="/home/wese-da/git/artery/scenarios/pedestrian_crossing/pedestrian_crossing.net.xml"/>
    </input>

    <output>
        <output-file value="/home/wese-da/git/artery/scenarios/pedestrian_crossing/pedestrian_crossing.net.xml"/>
    </output>

    <processing>
        <geometry.min-radius.fix.railways value="false"/>
        <geometry.max-grade.fix value="false"/>
        <offset.disable-normalization value="true"/>
        <lefthand value="0"/>
    </processing>

    <junctions>
        <no-turnarounds value="true"/>
        <junctions.corner-detail value="5"/>
        <junctions.limit-turn-speed value="5.50"/>
        <rectangular-lane-cut value="0"/>
    </junctions>

    <pedestrian>
        <walkingareas value="0"/>
    </pedestrian>

</configuration>
-->

<net version="1.20" junctionCornerDetail="5" limitTurnSpeed="5.50" xmlns:xsi="http://www.w3.org/2001/XMLSchema-instance" xsi:noNamespaceSchemaLocation="http://sumo.dlr.de/xsd/net_file.xsd">

    <location netOffset="0.00,0.00" convBoundary="0.00,0.00,500.10,1.00" origBoundary="-10000000000.00,-10000000000.00,10000000000.00,10000000000.00" projParameter="!"/>

    <edge id=":1_0" function="internal">
        <lane id=":1_0_0" index="0" disallow="pedestrian tram rail_urban rail rail_electric rail_fast ship container cable_car subway aircraft wheelchair drone" speed="13.89" length="0.10" shape="10.00,-1.60 10.00,-1.60"/>
    </edge>
    <edge id=":10_0" function="internal">
        <lane id=":10_0_0" index="0" disallow="pedestrian tram rail_urban rail rail_electric rail_fast ship container cable_car subway aircraft wheelchair drone" speed="13.89" length="0.15" shape="99.85,-1.60 100.00,-1.60"/>
    </edge>
    <edge id=":11_0" function="internal">
        <lane id=":11_0_0" index="0" disallow="pedestrian tram rail_urban rail rail_electric rail_fast ship container cable_car subway aircraft wheelchair drone" speed="13.89" length="0.10" shape="110.05,-1.60 110.00,-1.60"/>
    </edge>
    <edge id=":12_0" function="internal">
        <lane id=":12_0_0" index="0" disallow="pedestrian tram rail_urban rail rail_electric rail_fast ship container cable_car subway aircraft wheelchair drone" speed="13.89" length="0.10" shape="120.05,-1.60 120.00,-1.60"/>
    </edge>
    <edge id=":13_0" function="internal">
        <lane id=":13_0_0" index="0" disallow="pedestrian tram rail_urban rail rail_electric rail_fast ship container cable_car subway aircraft wheelchair drone" speed="13.89" length="0.10" shape="130.05,-1.60 130.00,-1.60"/>
    </edge>
    <edge id=":14_0" function="internal">
        <lane id=":14_0_0" index="0" disallow="pedestrian tram rail_urban rail rail_electric rail_fast ship container cable_car subway aircraft wheelchair drone" speed="13.89" length="0.10" shape="140.05,-1.60 140.00,-1.60"/>
    </edge>
    <edge id=":15_0" function="internal">
        <lane id=":15_0_0" index="0" disallow="pedestrian tram rail_urban rail rail_electric rail_fast ship container cable_car subway aircraft wheelchair drone" speed="13.89" length="0.10" shape="150.05,-1.60 150.00,-1.60"/>
    </edge>
    <edge id=":16_0" function="internal">
        <lane id=":16_0_0" index="0" disallow="pedestrian tram rail_urban rail rail_electric rail_fast ship container cable_car subway aircraft wheelchair drone" speed="13.89" length="0.10" shape="160.05,-1.60 160.00,-1.60"/>
    </edge>
    <edge id=":17_0" function="internal">
        <lane id=":17_0_0" index="0" disallow="pedestrian tram rail_urban rail rail_electric rail_fast ship container cable_car subway aircraft wheelchair drone" speed="13.89" length="0.10" shape="170.05,-1.60 170.00,-1.60"/>
    </edge>
    <edge id=":18_0" function="internal">
        <lane id=":18_0_0" index="0" disallow="pedestrian tram rail_urban rail rail_electric rail_fast ship container cable_car subway aircraft wheelchair drone" speed="13.89" length="0.10" shape="180.05,-1.60 180.00,-1.60"/>
    </edge>
    <edge id=":19_0" function="internal">
        <lane id=":19_0_0" index="0" disallow="pedestrian tram rail_urban rail rail_electric rail_fast ship container cable_car subway aircraft wheelchair drone" speed="13.89" length="0.10" shape="190.05,-1.60 190.00,-1.60"/>
    </edge>
    <edge id=":2_0" function="internal">
        <lane id=":2_0_0" index="0" disallow="pedestrian tram rail_urban rail rail_electric rail_fast ship container cable_car subway aircraft wheelchair drone" speed="13.89" length="0.10" shape="20.00,-1.60 20.00,-1.60"/>
    </edge>
    <edge id=":20_0" function="internal">
        <lane id=":20_0_0" index="0" disallow="pedestrian tram rail_urban rail rail_electric rail_fast ship container cable_car subway aircraft wheelchair drone" speed="13.89" length="0.10" shape="200.05,-1.60 200.00,-1.60"/>
    </edge>
    <edge id=":21_0" function="internal">
        <lane id=":21_0_0" index="0" disallow="pedestrian tram rail_urban rail rail_electric rail_fast ship container cable_car subway aircraft wheelchair drone" speed="13.89" length="0.10" shape="210.05,-1.60 210.00,-1.60"/>
    </edge>
    <edge id=":22_0" function="internal">
        <lane id=":22_0_0" index="0" disallow="pedestrian tram rail_urban rail rail_electric rail_fast ship container cable_car subway aircraft wheelchair drone" speed="13.89" length="0.10" shape="220.05,-1.60 220.00,-1.60"/>
    </edge>
    <edge id=":23_0" function="internal">
        <lane id=":23_0_0" index="0" disallow="pedestrian tram rail_urban rail rail_electric rail_fast ship container cable_car subway aircraft wheelchair drone" speed="13.89" length="0.10" shape="230.05,-1.60 230.00,-1.60"/>
    </edge>
    <edge id=":24_0" function="internal">
        <lane id=":24_0_0" index="0" disallow="pedestrian tram rail_urban rail rail_electric rail_fast ship container cable_car subway aircraft wheelchair drone" speed="13.89" length="0.10" shape="240.05,-1.60 240.00,-1.60"/>
    </edge>
    <edge id=":25_0" function="internal">
        <lane id=":25_0_0" index="0" disallow="pedestrian tram rail_urban rail rail_electric rail_fast ship container cable_car subway aircraft wheelchair drone" speed="13.89" length="0.10" shape="250.05,-1.60 250.00,-1.60"/>
    </edge>
    <edge id=":26_0" function="internal">
        <lane id=":26_0_0" index="0" disallow="pedestrian tram rail_urban rail rail_electric rail_fast ship container cable_car subway aircraft wheelchair drone" speed="13.89" length="0.10" shape="260.05,-1.60 260.00,-1.60"/>
    </edge>
    <edge id=":27_0" function="internal">
        <lane id=":27_0_0" index="0" disallow="pedestrian tram rail_urban rail rail_electric rail_fast ship container cable_car subway aircraft wheelchair drone" speed="13.89" length="0.25" shape="270.00,-1.60 270.25,-1.60"/>
    </edge>
    <edge id=":28_0" function="internal">
        <lane id=":28_0_0" index="0" disallow="pedestrian tram rail_urban rail rail_electric rail_fast ship container cable_car subway aircraft wheelchair drone" speed="13.89" length="0.32" shape="279.90,-1.50 279.99,-1.52 280.05,-1.55 280.11,-1.58 280.20,-1.60"/>
    </edge>
    <edge id=":29_0" function="internal">
        <lane id=":29_0_0" index="0" disallow="pedestrian tram rail_urban rail rail_electric rail_fast ship container cable_car subway aircraft wheelchair drone" speed="13.89" length="0.10" shape="290.05,-1.60 290.00,-1.60"/>
    </edge>
    <edge id=":3_0" function="internal">
        <lane id=":3_0_0" index="0" disallow="pedestrian tram rail_urban rail rail_electric rail_fast ship container cable_car subway aircraft wheelchair drone" speed="13.89" length="0.10" shape="30.00,-1.60 30.00,-1.60"/>
    </edge>
    <edge id=":30_0" function="internal">
        <lane id=":30_0_0" index="0" disallow="pedestrian tram rail_urban rail rail_electric rail_fast ship container cable_car subway aircraft wheelchair drone" speed="13.89" length="0.10" shape="300.05,-1.60 300.00,-1.60"/>
    </edge>
    <edge id=":31_0" function="internal">
        <lane id=":31_0_0" index="0" disallow="pedestrian tram rail_urban rail rail_electric rail_fast ship container cable_car subway aircraft wheelchair drone" speed="13.89" length="0.10" shape="310.05,-1.60 310.00,-1.60"/>
    </edge>
    <edge id=":32_0" function="internal">
        <lane id=":32_0_0" index="0" disallow="pedestrian tram rail_urban rail rail_electric rail_fast ship container cable_car subway aircraft wheelchair drone" speed="13.89" length="0.10" shape="320.05,-1.60 320.00,-1.60"/>
    </edge>
    <edge id=":33_0" function="internal">
        <lane id=":33_0_0" index="0" disallow="pedestrian tram rail_urban rail rail_electric rail_fast ship container cable_car subway aircraft wheelchair drone" speed="13.89" length="0.10" shape="330.05,-1.60 330.00,-1.60"/>
    </edge>
    <edge id=":34_0" function="internal">
        <lane id=":34_0_0" index="0" disallow="pedestrian tram rail_urban rail rail_electric rail_fast ship container cable_car subway aircraft wheelchair drone" speed="13.89" length="0.10" shape="340.05,-1.60 340.00,-1.60"/>
    </edge>
    <edge id=":35_0" function="internal">
        <lane id=":35_0_0" index="0" disallow="pedestrian tram rail_urban rail rail_electric rail_fast ship container cable_car subway aircraft wheelchair drone" speed="13.89" length="0.10" shape="350.05,-1.60 350.00,-1.60"/>
    </edge>
    <edge id=":36_0" function="internal">
        <lane id=":36_0_0" index="0" disallow="pedestrian tram rail_urban rail rail_electric rail_fast ship container cable_car subway aircraft wheelchair drone" speed="13.89" length="0.10" shape="360.05,-1.60 360.00,-1.60"/>
    </edge>
    <edge id=":37_0" function="internal">
        <lane id=":37_0_0" index="0" disallow="pedestrian tram rail_urban rail rail_electric rail_fast ship container cable_car subway aircraft wheelchair drone" speed="13.89" length="0.10" shape="370.05,-1.60 370.00,-1.60"/>
    </edge>
    <edge id=":38_0" function="internal">
        <lane id=":38_0_0" index="0" disallow="pedestrian tram rail_urban rail rail_electric rail_fast ship container cable_car subway aircraft wheelchair drone" speed="13.89" length="0.10" shape="380.05,-1.60 380.00,-1.60"/>
    </edge>
    <edge id=":39_0" function="internal">
        <lane id=":39_0_0" index="0" disallow="pedestrian tram rail_urban rail rail_electric rail_fast ship container cable_car subway aircraft wheelchair drone" speed="13.89" length="0.10" shape="390.05,-1.60 390.00,-1.60"/>
    </edge>
    <edge id=":4_0" function="internal">
        <lane id=":4_0_0" index="0" disallow="pedestrian tram rail_urban rail rail_electric rail_fast ship container cable_car subway aircraft wheelchair drone" speed="13.89" length="0.10" shape="40.00,-1.60 40.00,-1.60"/>
    </edge>
    <edge id=":40_0" function="internal">
        <lane id=":40_0_0" index="0" disallow="pedestrian tram rail_urban rail rail_electric rail_fast ship container cable_car subway aircraft wheelchair drone" speed="13.89" length="0.10" shape="400.05,-1.60 400.00,-1.60"/>
    </edge>
    <edge id=":41_0" function="internal">
        <lane id=":41_0_0" index="0" disallow="pedestrian tram rail_urban rail rail_electric rail_fast ship container cable_car subway aircraft wheelchair drone" speed="13.89" length="0.10" shape="410.05,-1.60 410.00,-1.60"/>
    </edge>
    <edge id=":42_0" function="internal">
        <lane id=":42_0_0" index="0" disallow="pedestrian tram rail_urban rail rail_electric rail_fast ship container cable_car subway aircraft wheelchair drone" speed="13.89" length="0.10" shape="420.05,-1.60 420.00,-1.60"/>
    </edge>
    <edge id=":43_0" function="internal">
        <lane id=":43_0_0" index="0" disallow="pedestrian tram rail_urban rail rail_electric rail_fast ship container cable_car subway aircraft wheelchair drone" speed="13.89" length="0.10" shape="430.05,-1.60 430.00,-1.60"/>
    </edge>
    <edge id=":44_0" function="internal">
        <lane id=":44_0_0" index="0" disallow="pedestrian tram rail_urban rail rail_electric rail_fast ship container cable_car subway aircraft wheelchair drone" speed="13.89" length="0.10" shape="440.05,-1.60 440.00,-1.60"/>
    </edge>
    <edge id=":45_0" function="internal">
        <lane id=":45_0_0" index="0" disallow="pedestrian tram rail_urban rail rail_electric rail_fast ship container cable_car subway aircraft wheelchair drone" speed="13.89" length="0.10" shape="450.05,-1.60 450.00,-1.60"/>
    </edge>
    <edge id=":46_0" function="internal">
        <lane id=":46_0_0" index="0" disallow="pedestrian tram rail_urban rail rail_electric rail_fast ship container cable_car subway aircraft wheelchair drone" speed="13.89" length="0.10" shape="460.05,-1.60 460.00,-1.60"/>
    </edge>
    <edge id=":47_0" function="internal">
        <lane id=":47_0_0" index="0" disallow="pedestrian tram rail_urban rail rail_electric rail_fast ship container cable_car subway aircraft wheelchair drone" speed="13.89" length="0.10" shape="470.05,-1.60 470.00,-1.60"/>
    </edge>
    <edge id=":48_0" function="internal">
        <lane id=":48_0_0" index="0" disallow="pedestrian tram rail_urban rail rail_electric rail_fast ship container cable_car subway aircraft wheelchair drone" speed="13.89" length="0.10" shape="480.05,-1.60 480.00,-1.60"/>
    </edge>
    <edge id=":49_0" function="internal">
        <lane id=":49_0_0" index="0" disallow="pedestrian tram rail_urban rail rail_electric rail_fast ship container cable_car subway aircraft wheelchair drone" speed="13.89" length="0.10" shape="490.05,-1.60 490.00,-1.60"/>
    </edge>
    <edge id=":5_0" function="internal">
        <lane id=":5_0_0" index="0" disallow="pedestrian tram rail_urban rail rail_electric rail_fast ship container cable_car subway aircraft wheelchair drone" speed="13.89" length="0.10" shape="50.00,-1.60 50.00,-1.60"/>
    </edge>
    <edge id=":6_0" function="internal">
        <lane id=":6_0_0" index="0" disallow="pedestrian tram rail_urban rail rail_electric rail_fast ship container cable_car subway aircraft wheelchair drone" speed="13.89" length="0.10" shape="60.00,-1.60 60.00,-1.60"/>
    </edge>
    <edge id=":7_0" function="internal">
        <lane id=":7_0_0" index="0" disallow="pedestrian tram rail_urban rail rail_electric rail_fast ship container cable_car subway aircraft wheelchair drone" speed="13.89" length="0.10" shape="70.00,-1.60 70.00,-1.60"/>
    </edge>
    <edge id=":8_0" function="internal">
        <lane id=":8_0_0" index="0" disallow="pedestrian tram rail_urban rail rail_electric rail_fast ship container cable_car subway aircraft wheelchair drone" speed="13.89" length="0.10" shape="80.00,-1.60 80.00,-1.60"/>
    </edge>
    <edge id=":9_0" function="internal">
        <lane id=":9_0_0" index="0" disallow="pedestrian tram rail_urban rail rail_electric rail_fast ship container cable_car subway aircraft wheelchair drone" speed="13.89" length="0.10" shape="90.00,-1.60 90.00,-1.60"/>
    </edge>

    <edge id="01" from="0" to="1" priority="-1">
        <lane id="01_0" index="0" allow="pedestrian" speed="13.89" length="10.00" width="2.00" shape="0.00,-4.20 10.00,-4.20"/>
        <lane id="01_1" index="1" disallow="pedestrian tram rail_urban rail rail_electric rail_fast ship container cable_car subway aircraft wheelchair drone" speed="13.89" length="10.00" shape="0.00,-1.60 10.00,-1.60"/>
    </edge>
    <edge id="10" from="1" to="0" priority="-1">
        <lane id="10_0" index="0" allow="pedestrian" speed="13.89" length="10.00" width="2.00" shape="10.00,1.00 0.00,1.00"/>
    </edge>
    <edge id="1011" from="10" to="11" priority="-1">
        <lane id="1011_0" index="0" allow="pedestrian" speed="13.89" length="10.05" width="2.00" shape="100.00,-4.20 110.05,-4.20"/>
        <lane id="1011_1" index="1" disallow="pedestrian tram rail_urban rail rail_electric rail_fast ship container cable_car subway aircraft wheelchair drone" speed="13.89" length="10.05" shape="100.00,-1.60 110.05,-1.60"/>
    </edge>
    <edge id="109" from="10" to="9" priority="-1" spreadType="center" shape="100.00,1.00 89.90,1.00">
        <lane id="109_0" index="0" allow="pedestrian" speed="13.89" length="9.95" width="2.00" shape="99.85,1.00 89.90,1.00"/>
    </edge>
    <edge id="1110" from="11" to="10" priority="-1" spreadType="center" shape="110.10,1.00 100.00,1.00">
        <lane id="1110_0" index="0" allow="pedestrian" speed="13.89" length="10.10" width="2.00" shape="110.10,1.00 100.00,1.00"/>
    </edge>
    <edge id="1112" from="11" to="12" priority="-1">
        <lane id="1112_0" index="0" allow="pedestrian" speed="13.89" length="10.05" width="2.00" shape="110.00,-4.20 120.05,-4.20"/>
        <lane id="1112_1" index="1" disallow="pedestrian tram rail_urban rail rail_electric rail_fast ship container cable_car subway aircraft wheelchair drone" speed="13.89" length="10.05" shape="110.00,-1.60 120.05,-1.60"/>
    </edge>
    <edge id="12" from="1" to="2" priority="-1">
        <lane id="12_0" index="0" allow="pedestrian" speed="13.89" length="10.00" width="2.00" shape="10.00,-4.20 20.00,-4.20"/>
        <lane id="12_1" index="1" disallow="pedestrian tram rail_urban rail rail_electric rail_fast ship container cable_car subway aircraft wheelchair drone" speed="13.89" length="10.00" shape="10.00,-1.60 20.00,-1.60"/>
    </edge>
    <edge id="1211" from="12" to="11" priority="-1" spreadType="center" shape="120.10,1.00 110.00,1.00">
        <lane id="1211_0" index="0" allow="pedestrian" speed="13.89" length="10.10" width="2.00" shape="120.10,1.00 110.00,1.00"/>
    </edge>
    <edge id="1213" from="12" to="13" priority="-1">
        <lane id="1213_0" index="0" allow="pedestrian" speed="13.89" length="10.05" width="2.00" shape="120.00,-4.20 130.05,-4.20"/>
        <lane id="1213_1" index="1" disallow="pedestrian tram rail_urban rail rail_electric rail_fast ship container cable_car subway aircraft wheelchair drone" speed="13.89" length="10.05" shape="120.00,-1.60 130.05,-1.60"/>
    </edge>
    <edge id="1312" from="13" to="12" priority="-1" spreadType="center" shape="130.10,1.00 120.00,1.00">
        <lane id="1312_0" index="0" allow="pedestrian" speed="13.89" length="10.10" width="2.00" shape="130.10,1.00 120.00,1.00"/>
    </edge>
    <edge id="1314" from="13" to="14" priority="-1">
        <lane id="1314_0" index="0" allow="pedestrian" speed="13.89" length="10.05" width="2.00" shape="130.00,-4.20 140.05,-4.20"/>
        <lane id="1314_1" index="1" disallow="pedestrian tram rail_urban rail rail_electric rail_fast ship container cable_car subway aircraft wheelchair drone" speed="13.89" length="10.05" shape="130.00,-1.60 140.05,-1.60"/>
    </edge>
    <edge id="1413" from="14" to="13" priority="-1" spreadType="center" shape="140.10,1.00 130.00,1.00">
        <lane id="1413_0" index="0" allow="pedestrian" speed="13.89" length="10.10" width="2.00" shape="140.10,1.00 130.00,1.00"/>
    </edge>
    <edge id="1415" from="14" to="15" priority="-1">
        <lane id="1415_0" index="0" allow="pedestrian" speed="13.89" length="10.05" width="2.00" shape="140.00,-4.20 150.05,-4.20"/>
        <lane id="1415_1" index="1" disallow="pedestrian tram rail_urban rail rail_electric rail_fast ship container cable_car subway aircraft wheelchair drone" speed="13.89" length="10.05" shape="140.00,-1.60 150.05,-1.60"/>
    </edge>
    <edge id="1514" from="15" to="14" priority="-1" spreadType="center" shape="150.10,1.00 140.00,1.00">
        <lane id="1514_0" index="0" allow="pedestrian" speed="13.89" length="10.10" width="2.00" shape="150.10,1.00 140.00,1.00"/>
    </edge>
    <edge id="1516" from="15" to="16" priority="-1">
        <lane id="1516_0" index="0" allow="pedestrian" speed="13.89" length="10.05" width="2.00" shape="150.00,-4.20 160.05,-4.20"/>
        <lane id="1516_1" index="1" disallow="pedestrian tram rail_urban rail rail_electric rail_fast ship container cable_car subway aircraft wheelchair drone" speed="13.89" length="10.05" shape="150.00,-1.60 160.05,-1.60"/>
    </edge>
    <edge id="1615" from="16" to="15" priority="-1" spreadType="center" shape="160.10,1.00 150.00,1.00">
        <lane id="1615_0" index="0" allow="pedestrian" speed="13.89" length="10.10" width="2.00" shape="160.10,1.00 150.00,1.00"/>
    </edge>
    <edge id="1617" from="16" to="17" priority="-1">
        <lane id="1617_0" index="0" allow="pedestrian" speed="13.89" length="10.05" width="2.00" shape="160.00,-4.20 170.05,-4.20"/>
        <lane id="1617_1" index="1" disallow="pedestrian tram rail_urban rail rail_electric rail_fast ship container cable_car subway aircraft wheelchair drone" speed="13.89" length="10.05" shape="160.00,-1.60 170.05,-1.60"/>
    </edge>
    <edge id="1716" from="17" to="16" priority="-1" spreadType="center" shape="170.10,1.00 160.00,1.00">
        <lane id="1716_0" index="0" allow="pedestrian" speed="13.89" length="10.10" width="2.00" shape="170.10,1.00 160.00,1.00"/>
    </edge>
    <edge id="1718" from="17" to="18" priority="-1">
        <lane id="1718_0" index="0" allow="pedestrian" speed="13.89" length="10.05" width="2.00" shape="170.00,-4.20 180.05,-4.20"/>
        <lane id="1718_1" index="1" disallow="pedestrian tram rail_urban rail rail_electric rail_fast ship container cable_car subway aircraft wheelchair drone" speed="13.89" length="10.05" shape="170.00,-1.60 180.05,-1.60"/>
    </edge>
    <edge id="1817" from="18" to="17" priority="-1" spreadType="center" shape="180.10,1.00 170.00,1.00">
        <lane id="1817_0" index="0" allow="pedestrian" speed="13.89" length="10.10" width="2.00" shape="180.10,1.00 170.00,1.00"/>
    </edge>
    <edge id="1819" from="18" to="19" priority="-1">
        <lane id="1819_0" index="0" allow="pedestrian" speed="13.89" length="10.05" width="2.00" shape="180.00,-4.20 190.05,-4.20"/>
        <lane id="1819_1" index="1" disallow="pedestrian tram rail_urban rail rail_electric rail_fast ship container cable_car subway aircraft wheelchair drone" speed="13.89" length="10.05" shape="180.00,-1.60 190.05,-1.60"/>
    </edge>
    <edge id="1918" from="19" to="18" priority="-1" spreadType="center" shape="190.10,1.00 180.00,1.00">
        <lane id="1918_0" index="0" allow="pedestrian" speed="13.89" length="10.10" width="2.00" shape="190.10,1.00 180.00,1.00"/>
    </edge>
    <edge id="1920" from="19" to="20" priority="-1">
        <lane id="1920_0" index="0" allow="pedestrian" speed="13.89" length="10.05" width="2.00" shape="190.00,-4.20 200.05,-4.20"/>
        <lane id="1920_1" index="1" disallow="pedestrian tram rail_urban rail rail_electric rail_fast ship container cable_car subway aircraft wheelchair drone" speed="13.89" length="10.05" shape="190.00,-1.60 200.05,-1.60"/>
    </edge>
    <edge id="2019" from="20" to="19" priority="-1" spreadType="center" shape="200.10,1.00 190.00,1.00">
        <lane id="2019_0" index="0" allow="pedestrian" speed="13.89" length="10.10" width="2.00" shape="200.10,1.00 190.00,1.00"/>
    </edge>
    <edge id="2021" from="20" to="21" priority="-1">
        <lane id="2021_0" index="0" allow="pedestrian" speed="13.89" length="10.05" width="2.00" shape="200.00,-4.20 210.05,-4.20"/>
        <lane id="2021_1" index="1" disallow="pedestrian tram rail_urban rail rail_electric rail_fast ship container cable_car subway aircraft wheelchair drone" speed="13.89" length="10.05" shape="200.00,-1.60 210.05,-1.60"/>
    </edge>
    <edge id="21" from="2" to="1" priority="-1">
        <lane id="21_0" index="0" allow="pedestrian" speed="13.89" length="10.00" width="2.00" shape="20.00,1.00 10.00,1.00"/>
    </edge>
    <edge id="2120" from="21" to="20" priority="-1" spreadType="center" shape="210.10,1.00 200.00,1.00">
        <lane id="2120_0" index="0" allow="pedestrian" speed="13.89" length="10.10" width="2.00" shape="210.10,1.00 200.00,1.00"/>
    </edge>
    <edge id="2122" from="21" to="22" priority="-1">
        <lane id="2122_0" index="0" allow="pedestrian" speed="13.89" length="10.05" width="2.00" shape="210.00,-4.20 220.05,-4.20"/>
        <lane id="2122_1" index="1" disallow="pedestrian tram rail_urban rail rail_electric rail_fast ship container cable_car subway aircraft wheelchair drone" speed="13.89" length="10.05" shape="210.00,-1.60 220.05,-1.60"/>
    </edge>
    <edge id="2221" from="22" to="21" priority="-1" spreadType="center" shape="220.10,1.00 210.00,1.00">
        <lane id="2221_0" index="0" allow="pedestrian" speed="13.89" length="10.10" width="2.00" shape="220.10,1.00 210.00,1.00"/>
    </edge>
    <edge id="2223" from="22" to="23" priority="-1">
        <lane id="2223_0" index="0" allow="pedestrian" speed="13.89" length="10.05" width="2.00" shape="220.00,-4.20 230.05,-4.20"/>
        <lane id="2223_1" index="1" disallow="pedestrian tram rail_urban rail rail_electric rail_fast ship container cable_car subway aircraft wheelchair drone" speed="13.89" length="10.05" shape="220.00,-1.60 230.05,-1.60"/>
    </edge>
    <edge id="23" from="2" to="3" priority="-1">
        <lane id="23_0" index="0" allow="pedestrian" speed="13.89" length="10.00" width="2.00" shape="20.00,-4.20 30.00,-4.20"/>
        <lane id="23_1" index="1" disallow="pedestrian tram rail_urban rail rail_electric rail_fast ship container cable_car subway aircraft wheelchair drone" speed="13.89" length="10.00" shape="20.00,-1.60 30.00,-1.60"/>
    </edge>
    <edge id="2322" from="23" to="22" priority="-1" spreadType="center" shape="230.10,1.00 220.00,1.00">
        <lane id="2322_0" index="0" allow="pedestrian" speed="13.89" length="10.10" width="2.00" shape="230.10,1.00 220.00,1.00"/>
    </edge>
    <edge id="2324" from="23" to="24" priority="-1">
        <lane id="2324_0" index="0" allow="pedestrian" speed="13.89" length="10.05" width="2.00" shape="230.00,-4.20 240.05,-4.20"/>
        <lane id="2324_1" index="1" disallow="pedestrian tram rail_urban rail rail_electric rail_fast ship container cable_car subway aircraft wheelchair drone" speed="13.89" length="10.05" shape="230.00,-1.60 240.05,-1.60"/>
    </edge>
    <edge id="2423" from="24" to="23" priority="-1" spreadType="center" shape="240.10,1.00 230.00,1.00">
        <lane id="2423_0" index="0" allow="pedestrian" speed="13.89" length="10.10" width="2.00" shape="240.10,1.00 230.00,1.00"/>
    </edge>
    <edge id="2425" from="24" to="25" priority="-1">
        <lane id="2425_0" index="0" allow="pedestrian" speed="13.89" length="10.05" width="2.00" shape="240.00,-4.20 250.05,-4.20"/>
        <lane id="2425_1" index="1" disallow="pedestrian tram rail_urban rail rail_electric rail_fast ship container cable_car subway aircraft wheelchair drone" speed="13.89" length="10.05" shape="240.00,-1.60 250.05,-1.60"/>
    </edge>
    <edge id="2524" from="25" to="24" priority="-1" spreadType="center" shape="250.10,1.00 240.00,1.00">
        <lane id="2524_0" index="0" allow="pedestrian" speed="13.89" length="10.10" width="2.00" shape="250.10,1.00 240.00,1.00"/>
    </edge>
    <edge id="2526" from="25" to="26" priority="-1">
        <lane id="2526_0" index="0" allow="pedestrian" speed="13.89" length="10.05" width="2.00" shape="250.00,-4.20 260.05,-4.20"/>
        <lane id="2526_1" index="1" disallow="pedestrian tram rail_urban rail rail_electric rail_fast ship container cable_car subway aircraft wheelchair drone" speed="13.89" length="10.05" shape="250.00,-1.60 260.05,-1.60"/>
    </edge>
    <edge id="2625" from="26" to="25" priority="-1" spreadType="center" shape="260.10,1.00 250.00,1.00">
        <lane id="2625_0" index="0" allow="pedestrian" speed="13.89" length="10.10" width="2.00" shape="260.10,1.00 250.00,1.00"/>
    </edge>
    <edge id="2627" from="26" to="27" priority="-1">
        <lane id="2627_0" index="0" allow="pedestrian" speed="13.89" length="10.00" width="2.00" shape="260.00,-4.20 270.00,-4.20"/>
        <lane id="2627_1" index="1" disallow="pedestrian tram rail_urban rail rail_electric rail_fast ship container cable_car subway aircraft wheelchair drone" speed="13.89" length="10.00" shape="260.00,-1.60 270.00,-1.60"/>
    </edge>
    <edge id="2726" from="27" to="26" priority="-1" spreadType="center" shape="270.10,1.00 260.00,1.00">
        <lane id="2726_0" index="0" allow="pedestrian" speed="13.89" length="9.91" width="2.00" shape="269.91,1.00 260.00,1.00"/>
    </edge>
    <edge id="2728" from="27" to="28" priority="-1" shape="270.00,0.00 280.10,0.10">
        <lane id="2728_0" index="0" allow="pedestrian" speed="13.89" length="9.64" width="2.00" shape="270.27,-4.20 279.90,-4.10"/>
        <lane id="2728_1" index="1" disallow="pedestrian tram rail_urban rail rail_electric rail_fast ship container cable_car subway aircraft wheelchair drone" speed="13.89" length="9.64" shape="270.25,-1.60 279.90,-1.50"/>
    </edge>
    <edge id="2827" from="28" to="27" priority="-1" spreadType="center" shape="280.10,1.00 270.00,1.00">
        <lane id="2827_0" index="0" allow="pedestrian" speed="13.89" length="9.68" width="2.00" shape="279.90,1.00 270.22,1.00"/>
    </edge>
    <edge id="2829" from="28" to="29" priority="-1">
        <lane id="2829_0" index="0" allow="pedestrian" speed="13.89" length="9.85" width="2.00" shape="280.20,-4.20 290.05,-4.20"/>
        <lane id="2829_1" index="1" disallow="pedestrian tram rail_urban rail rail_electric rail_fast ship container cable_car subway aircraft wheelchair drone" speed="13.89" length="9.85" shape="280.20,-1.60 290.05,-1.60"/>
    </edge>
    <edge id="2928" from="29" to="28" priority="-1" spreadType="center" shape="290.10,1.00 280.00,1.00">
        <lane id="2928_0" index="0" allow="pedestrian" speed="13.89" length="9.90" width="2.00" shape="290.10,1.00 280.20,1.00"/>
    </edge>
    <edge id="2930" from="29" to="30" priority="-1">